<?xml version="1.0" encoding="UTF-8"?>

<!-- generated on 2023-10-30 14:50:20 by Eclipse SUMO polyconvert Version 8df0f7221e0
<configuration xmlns:xsi="http://www.w3.org/2001/XMLSchema-instance" xsi:noNamespaceSchemaLocation="http://sumo.dlr.de/xsd/polyconvertConfiguration.xsd">

    <input>
        <net-file value="test.net.xml"/>
        <osm-files value="map.osm"/>
        <type-file value="typemap.xml"/>
    </input>

    <output>
        <output-file value="test.poly.xml"/>
    </output>

    <report>
        <xml-validation value="never"/>
    </report>

</configuration>
-->

<additional xmlns:xsi="http://www.w3.org/2001/XMLSchema-instance" xsi:noNamespaceSchemaLocation="http://sumo.dlr.de/xsd/additional_file.xsd">
    <location netOffset="-644552.21,-5492776.91" convBoundary="-1113.50,-1527.90,2457.69,2379.08" origBoundary="10.984401,49.556337,11.033764,49.591410" projParameter="+proj=utm +zone=32 +ellps=WGS84 +datum=WGS84 +units=m +no_defs"/>

    <poly id="1005904543" type="leisure" color="207,245,201" fill="1" layer="31.246" shape="871.006248,1321.283434 877.164085,1312.537383 861.508248,1301.572653 855.350723,1310.307605 871.006248,1321.283434"/>
    <poly id="1005904543#1" type="natural" color="140,196,107" fill="1" layer="42.306" shape="871.006248,1321.283434 877.164085,1312.537383 861.508248,1301.572653 855.350723,1310.307605 871.006248,1321.283434"/>
    <poly id="1005904543#2" type="sport" color="79,230,125" fill="1" layer="11.026" shape="871.006248,1321.283434 877.164085,1312.537383 861.508248,1301.572653 855.350723,1310.307605 871.006248,1321.283434"/>
    <poly id="1005932265" type="landuse" color="194,194,130" fill="1" layer="20.586" shape="803.879340,1164.201612 835.677751,1167.421200 853.033011,1175.171792 812.528286,1244.373523 804.795702,1239.783762 801.925881,1238.093997 792.632521,1232.361208 797.399120,1216.669565 798.089202,1211.148006 803.879340,1164.201612"/>
    <poly id="1006396956" type="building" color="255,230,230" fill="1" layer="16.321" shape="846.649818,799.504496 861.497154,799.912582 862.109043,777.568687 862.822974,751.678806 847.989963,751.271105 846.649818,799.504496"/>
    <poly id="1006396957" type="building" color="255,230,230" fill="1" layer="31.448" shape="877.878057,800.050230 892.014607,800.528389 892.771492,778.177245 893.597441,753.514052 879.446013,753.046622 877.878057,800.050230"/>
    <poly id="1006396958" type="building" color="255,230,230" fill="1" layer="-0.451" shape="909.434039,801.594991 923.610595,801.929684 924.141644,779.372257 924.748927,753.423894 910.557787,753.088814 909.434039,801.594991"/>
    <poly id="1006396959" type="building" color="255,230,230" fill="1" layer="52.599" shape="847.602064,744.675029 848.115555,731.150238 918.098565,730.796749 917.545618,743.085666 879.360017,744.089095 847.602064,744.675029"/>
    <poly id="1006396960" type="building" color="255,230,230" fill="1" layer="23.017" shape="917.545618,743.085666 923.405823,743.598399 950.523741,746.915841 961.924382,748.266564 962.792016,736.386549 918.098565,730.796749 917.545618,743.085666"/>
    <poly id="1006396961" type="building" color="255,230,230" fill="1" layer="10.847" shape="959.570650,768.105343 948.177279,766.754818 950.523741,746.915841 961.924382,748.266564 961.524021,751.604331 960.112454,763.536540 959.570650,768.105343"/>
    <poly id="1006413126" type="building" color="255,230,230" fill="1" layer="20.979" shape="1259.879449,1052.949424 1259.665273,1040.973668 1259.298916,1020.105320 1259.175205,1012.848798 1298.117276,1012.168766 1298.379567,1027.472057 1274.997337,1027.868459 1275.431286,1052.687839 1259.879449,1052.949424"/>
    <poly id="1006413127" type="building" color="255,230,230" fill="1" layer="7.796" shape="1297.019911,1036.902584 1314.241177,1036.430017 1315.338320,1075.350882 1294.099514,1075.938181 1275.256559,1076.467440 1274.861718,1062.328674 1297.714869,1061.695598 1297.446959,1052.265918 1297.019911,1036.902584"/>
    <poly id="1006466744" type="building" color="255,230,230" fill="1" layer="9.856" shape="1161.507210,1047.420284 1157.540649,1047.247255 1157.702130,1043.380243 1161.668694,1043.553272 1161.507210,1047.420284"/>
    <poly id="1006498190" type="building" color="255,230,230" fill="1" layer="2.481" shape="1140.448434,1323.145105 1140.194380,1317.509280 1146.060348,1317.243719 1146.314098,1322.890661 1140.448434,1323.145105"/>
    <poly id="1006498191" type="building" color="255,230,230" fill="1" layer="5.43" shape="1128.719487,1288.467156 1128.527675,1284.557304 1144.686417,1283.755409 1144.885446,1287.665456 1128.719487,1288.467156"/>
    <poly id="1006498194" type="building" color="255,230,230" fill="1" layer="11.612" shape="906.778668,1281.902734 912.540277,1272.289532 892.555708,1260.363457 886.786598,1269.987602 906.778668,1281.902734"/>
    <poly id="1006498195" type="building" color="255,230,230" fill="1" layer="8.648" shape="945.627103,1296.536235 946.158941,1290.176114 977.127254,1292.762505 976.701873,1297.846154 951.954596,1295.782209 951.848405,1297.047563 945.627103,1296.536235"/>
    <poly id="1006498196" type="building" color="255,230,230" fill="1" layer="10.781" shape="916.505276,1288.737521 921.875469,1289.159299 922.412244,1282.343204 917.049272,1281.921618 916.505276,1288.737521"/>
    <poly id="1006523082" type="building" color="255,230,230" fill="1" layer="1.873" shape="285.490888,995.539597 284.244244,988.842847 293.199940,987.190214 294.446573,993.886967 285.490888,995.539597"/>
    <poly id="1006523083" type="building" color="255,230,230" fill="1" layer="20.194" shape="257.810016,894.148399 261.451330,901.921230 264.962396,909.423608 275.861070,904.351852 290.049288,934.654495 306.368062,927.057292 292.159113,896.720678 305.203922,890.649316 319.563553,921.301464 335.193753,914.030859 320.684339,883.029818 333.433437,876.928394 326.688013,862.131157 291.699517,878.397587 257.810016,894.148399"/>
    <poly id="1006523084" type="building" color="255,230,230" fill="1" layer="20.145" shape="276.403873,944.269719 277.907583,948.648302 303.567499,939.864814 302.063807,935.486224 276.403873,944.269719"/>
    <poly id="1024216651" type="building" color="255,230,230" fill="1" layer="10.227" shape="1054.813581,878.273075 1064.659917,884.710820 1066.167066,885.696759 1080.569529,863.811115 1079.062376,862.825171 1076.211647,860.957786 1069.216015,856.387401 1054.813581,878.273075"/>
    <poly id="1024216652" type="building" color="255,230,230" fill="1" layer="3.387" shape="1076.211647,860.957786 1079.062376,862.825171 1080.569529,863.811115 1081.036752,863.111656 1088.037427,867.493075 1088.369773,866.967998 1110.674060,831.488500 1109.151851,830.524394 1105.879091,828.478823 1099.241082,824.329586 1077.450714,858.988550 1077.116880,859.569211 1076.211647,860.957786"/>
    <poly id="1024216653" type="building" color="255,230,230" fill="1" layer="25.595" shape="1105.879091,828.478823 1109.151851,830.524394 1110.674060,831.488500 1110.809833,831.280771 1118.179155,834.593022 1118.955992,832.867278 1135.310369,796.727900 1135.925289,795.376055 1134.281459,794.631175 1123.409648,789.745525 1106.993933,826.016787 1106.440424,827.236785 1105.879091,828.478823"/>
    <poly id="1032243328" type="tourism" color="207,245,201" fill="0" layer="27.169" shape="1238.879117,1131.248292 1238.850736,1134.195536"/>
    <poly id="1032243329" type="tourism" color="207,245,201" fill="0" layer="7.065" shape="1238.702876,1151.312250 1238.659442,1154.281340"/>
    <poly id="1035360648" type="landuse" color="194,194,130" fill="1" layer="14.191" shape="414.782490,1517.284887 423.917884,1491.230192 471.823600,1507.948495 462.681064,1533.991804 414.782490,1517.284887"/>
    <poly id="1044789761" type="building" color="255,230,230" fill="1" layer="13.054" shape="481.208828,1372.747132 480.138553,1375.722195 486.601158,1378.030472 492.283114,1362.151655 485.820195,1359.854488 481.208828,1372.747132"/>
    <poly id="1109601305" type="unknown" color="51,128,255" fill="0" layer="2.865" shape="556.413500,1236.298194 553.363261,1236.216798 553.532590,1239.358421 553.874764,1249.846817 554.134858,1257.718769 557.149727,1257.498860"/>
    <poly id="1109601306" type="amenity" color="237,199,199" fill="1" layer="11.595" shape="553.532590,1239.358421 550.997432,1239.491013 550.670558,1233.308202 553.205718,1233.175610 553.363261,1236.216798 553.532590,1239.358421"/>
    <poly id="1109601306#1" type="building" color="255,230,230" fill="1" layer="29.614" shape="553.532590,1239.358421 550.997432,1239.491013 550.670558,1233.308202 553.205718,1233.175610 553.363261,1236.216798 553.532590,1239.358421"/>
    <poly id="1109601307" type="building" color="255,230,230" fill="1" layer="8.798" shape="550.997432,1239.491013 551.237826,1249.998941 553.874764,1249.846817 553.532590,1239.358421 550.997432,1239.491013"/>
    <poly id="1116614507" type="amenity" color="237,199,199" fill="1" layer="15.883" shape="312.247578,621.858796 333.260889,612.951620 323.240943,590.713920 302.662658,599.310114 312.247578,621.858796"/>
    <poly id="1116614508" type="amenity" color="237,199,199" fill="1" layer="21.898" shape="337.110501,602.319075 355.921483,593.264317 350.532593,582.385648 331.495171,590.978290 337.110501,602.319075"/>
    <poly id="1116614509" type="unknown" color="51,128,255" fill="0" layer="11.879" shape="525.265876,629.505769 568.020039,722.723654 574.032254,719.980593 579.773453,717.363800"/>
    <poly id="1116614510" type="forest" color="140,196,107" fill="1" layer="5.879" shape="357.557492,717.301079 406.263618,695.571402 401.160776,684.010579 351.998568,705.750402 357.557492,717.301079"/>
    <poly id="1116614511" type="landuse" color="194,194,130" fill="1" layer="5.944" shape="340.802774,706.208585 399.455382,678.514142 397.796080,675.088083 392.762702,664.719438 344.445592,685.959008 333.362449,691.148102 334.886389,694.225676 340.802774,706.208585"/>
    <poly id="1116614512" type="landuse" color="194,194,130" fill="1" layer="6.547" shape="346.807214,722.487889 357.557492,717.301079 351.998568,705.750402 340.845121,710.592748 346.807214,722.487889"/>
    <poly id="1120171318" type="landuse" color="194,194,130" fill="0" layer="22.117" shape="405.286060,676.066418 517.746131,624.488294 512.015081,612.076269 426.974153,648.900100"/>
    <poly id="1135627925" type="forest" color="140,196,107" fill="1" layer="12.706" shape="1222.051640,687.684459 1205.680432,693.108318 1207.912531,695.927024 1208.716026,699.686401 1207.564111,704.338959 1205.136797,708.534604 1204.339630,713.986511 1211.853865,777.753500 1212.780972,787.156334 1213.156936,798.769303 1216.810498,820.882690 1220.739938,846.196218 1224.306351,865.081162 1225.731370,867.511136 1227.105336,869.416888 1231.049592,869.077635 1227.687316,849.864422 1224.209221,839.558864 1222.359956,831.366132 1220.662682,820.741202 1221.905019,798.681167 1230.257138,780.171317 1243.610832,762.362908 1257.792019,755.245147 1272.728754,746.390003 1294.087037,739.776262 1342.613170,739.742838 1342.050397,722.429068 1345.298526,712.448484 1349.815364,708.297826 1356.502905,706.285698 1370.635186,705.585772 1376.355414,699.453879 1382.908403,696.525959 1387.870823,690.329245 1391.900976,687.333639 1402.893717,685.826453 1405.714489,680.184132 1406.312024,669.509471 1409.671596,664.816074 1421.154535,660.140455 1433.679880,663.524769 1444.718566,657.613573 1451.103377,646.671535 1448.258167,636.783298 1449.912941,633.078743 1458.159267,629.595638 1476.379428,634.000648 1496.253128,593.529146 1529.267127,603.593519 1547.685483,556.185865 1560.839906,564.704661 1570.309179,550.174504 1568.091804,542.772719 1582.668041,526.644350 1591.711965,524.718057 1605.507749,544.367639 1630.258138,504.183363 1619.108143,496.719480 1632.913683,472.939067 1642.482801,472.740153 1657.335563,444.994221 1669.235645,442.588597 1683.026270,420.721323 1731.878827,359.169965 1730.553005,342.024708 1758.320428,297.594621 1751.644818,290.261959 1857.688445,181.702487 1869.991160,193.391838 1936.206989,126.090897 1952.021095,119.419292 2074.747059,-3.037697 2075.145751,-10.313566 2089.334807,-24.315213 2100.517988,-24.503228 2126.942218,-12.499335 2163.567874,-34.839977 2189.706890,-9.582928 2127.446001,48.777469 2169.573634,90.674139 2212.434968,42.870918 2306.987011,121.448400 2308.691352,273.501351 2320.148393,273.599324 2322.018101,273.749930 2323.154686,255.502849 2323.871683,246.900620 2326.198255,214.323771 2328.525322,171.011669 2328.539443,120.383858 2328.728281,51.494128 2325.545928,28.947579 2323.993406,-4.123357 2320.336254,-41.511845 2312.135733,-54.793550 2305.881309,-61.103189 2298.531105,-65.951700 2288.230055,-69.500399 2278.434528,-69.798168 2243.190190,-68.913757 2176.331793,-65.199651 2143.595718,-63.957705 2120.913235,-60.987186 2099.231494,-55.953794 2074.085852,-44.539163 2050.174934,-32.223427 2019.865570,-3.960449 1853.470212,156.180399 1690.920374,319.766684 1692.042636,325.114403 1697.115672,334.740062 1698.883818,337.590995 1693.629327,341.710429 1687.832939,337.193754 1673.995571,335.764913 1562.807815,444.322986 1569.151451,450.011186 1573.198119,454.758843 1573.883234,458.070120 1568.059191,465.355991 1561.940144,465.580968 1552.531363,458.464368 1536.253492,471.955093 1443.267826,560.201392 1415.234562,585.569432 1386.952231,608.906254 1356.016045,630.325342 1304.040769,661.826523 1276.939592,674.059889 1253.239105,682.223974 1232.854879,686.227476 1222.051640,687.684459"/>
    <poly id="1136027379" type="building" color="255,230,230" fill="1" layer="4.346" shape="722.754474,1198.978207 776.678220,1206.025823 789.248378,1110.268303 773.585108,1108.214393 762.934560,1189.261016 724.688460,1184.256539 722.754474,1198.978207"/>
    <poly id="1136027380" type="building" color="255,230,230" fill="1" layer="8.318" shape="725.786194,1174.574177 740.719141,1176.341457 744.278294,1146.278031 729.345264,1144.510743 725.786194,1174.574177"/>
    <poly id="1136027381" type="building" color="255,230,230" fill="1" layer="14.437" shape="729.995078,1138.598746 745.143781,1140.416295 747.532214,1120.600630 766.300615,1122.848688 768.077196,1108.067202 734.167172,1104.001772 729.995078,1138.598746"/>
    <poly id="1146013954" type="natural" color="140,196,107" fill="0" layer="5.184" shape="207.639988,625.002895 105.628439,671.981556"/>
    <poly id="1146061785" type="forest" color="140,196,107" fill="1" layer="5.43" shape="399.142254,654.977566 424.926114,642.960667 416.044961,623.067018 416.828769,620.529284 423.872671,616.534242 433.153756,610.841181 414.095923,567.815503 369.504029,587.674630 399.142254,654.977566"/>
    <poly id="1149814060" type="amenity" color="237,199,199" fill="0" layer="3.175" shape="103.065050,812.960060 115.183803,807.163972 117.705637,808.354623"/>
    <poly id="1149814061" type="amenity" color="237,199,199" fill="0" layer="8.514" shape="129.875223,796.841958 133.223785,797.954489 141.177850,794.806523 141.128406,792.858431"/>
    <poly id="1149814367" type="amenity" color="237,199,199" fill="0" layer="21.497" shape="174.286784,799.425303 172.685367,793.820467 170.868985,792.759808"/>
    <poly id="1149814368" type="amenity" color="237,199,199" fill="0" layer="4.264" shape="178.782333,796.307725 177.502351,795.205716 176.212283,790.677111"/>
    <poly id="1149814369" type="amenity" color="237,199,199" fill="0" layer="8.072" shape="172.632636,775.686227 175.525373,776.530792 180.085330,774.527372 180.220836,771.338263"/>
    <poly id="1149814370" type="amenity" color="237,199,199" fill="0" layer="14.377" shape="183.432078,761.845579 197.413843,757.812409"/>
    <poly id="1149814371" type="amenity" color="237,199,199" fill="0" layer="28.323" shape="237.622348,770.741373 236.033113,766.583018 232.556297,764.310067"/>
    <poly id="1149814372" type="amenity" color="237,199,199" fill="0" layer="4.713" shape="244.024176,766.940383 238.136871,765.815817 235.485308,763.520336"/>
    <poly id="1149814373" type="amenity" color="237,199,199" fill="0" layer="3.464" shape="283.572661,750.049720 278.562275,743.430737"/>
    <poly id="1149814374" type="amenity" color="237,199,199" fill="0" layer="19.207" shape="288.490024,747.666550 285.034680,746.217346 281.072977,742.051419"/>
    <poly id="1149820523" type="amenity" color="237,199,199" fill="1" layer="30.368" shape="147.549824,895.707848 146.331180,893.116803 148.768145,892.058075 149.936188,894.647775 147.549824,895.707848"/>
    <poly id="1149820524" type="amenity" color="237,199,199" fill="1" layer="8.378" shape="227.709678,858.327229 226.803917,856.211720 229.724511,854.921164 230.680574,857.049137 227.709678,858.327229"/>
    <poly id="1149823510" type="amenity" color="237,199,199" fill="0" layer="20.046" shape="210.606425,780.167697 216.007877,781.880021"/>
    <poly id="1149862968" type="amenity" color="237,199,199" fill="1" layer="6.584" shape="226.238956,755.698439 229.678923,755.823387 229.808286,752.322631 226.234649,752.327618 226.238956,755.698439"/>
    <poly id="1149862968#1" type="building" color="255,230,230" fill="1" layer="9.815" shape="226.238956,755.698439 229.678923,755.823387 229.808286,752.322631 226.234649,752.327618 226.238956,755.698439"/>
    <poly id="1150115498" type="amenity" color="237,199,199" fill="0" layer="20.363" shape="205.370656,748.857646 210.943260,748.761235"/>
    <poly id="1150671887" type="amenity" color="237,199,199" fill="1" layer="5.445" shape="421.240409,763.318094 423.553560,767.451308 426.541859,765.795551 424.236235,761.651412 422.767681,762.468849 421.240409,763.318094"/>
    <poly id="1150671887#1" type="building" color="255,230,230" fill="1" layer="14.294" shape="421.240409,763.318094 423.553560,767.451308 426.541859,765.795551 424.236235,761.651412 422.767681,762.468849 421.240409,763.318094"/>
    <poly id="1157634282" type="parking" color="184,184,179" fill="1" layer="17.386" shape="711.212138,1545.465092 708.217336,1550.624725 719.349495,1556.818129 723.569740,1556.686148 725.505260,1553.545129 717.127133,1549.038346 711.212138,1545.465092"/>
    <poly id="1158780391" type="landuse" color="194,194,130" fill="1" layer="21.745" shape="452.746209,777.874481 455.211858,776.015689 509.584928,758.787706 535.517012,750.969220 553.402870,746.217892 579.694070,739.043287 601.322790,733.913641 648.919323,725.060882 681.523487,720.146708 695.257970,718.622326 722.348694,715.652556 723.914855,715.516399 724.118681,718.447584 695.732050,721.727594 672.502012,724.511345 649.293116,728.130094 615.088061,734.214295 593.004293,738.775520 572.760438,743.786409 554.269452,749.255745 520.696463,760.129791 513.119061,760.806505 509.685956,761.237784 457.083207,779.625414 453.402501,780.661972 452.419355,779.823673 452.409590,778.833335 452.746209,777.874481"/>
    <poly id="1161966991" type="landuse" color="194,194,130" fill="1" layer="10.277" shape="350.920645,763.312990 358.922553,762.992220 351.747504,746.125487 346.117551,748.645358 350.920645,763.312990"/>
    <poly id="1161966992" type="landuse" color="194,194,130" fill="1" layer="22.717" shape="356.338556,776.895689 362.833714,770.138216 360.138698,764.860160 352.191013,765.860965 356.338556,776.895689"/>
    <poly id="1161966993" type="landuse" color="194,194,130" fill="1" layer="19.479" shape="363.685215,784.333464 368.200863,782.095404 363.682026,772.508080 357.581307,779.665418 363.685215,784.333464"/>
    <poly id="1162279963" type="building" color="255,230,230" fill="1" layer="20.789" shape="199.255904,1191.636973 199.859183,1188.538186 200.638519,1184.531880 205.647092,1185.499541 204.271699,1192.604825 199.255904,1191.636973"/>
    <poly id="1162818564" type="landuse" color="194,194,130" fill="1" layer="7.877" shape="47.646281,952.844435 45.395460,937.110264 50.178295,934.879056 50.622831,936.659661 61.597199,931.722994 60.923855,930.114295 62.876908,929.298524 64.017547,931.831853 78.978186,924.698467 77.749762,922.474284 80.823558,921.132103 81.789126,922.904319 96.702140,916.203565 95.722415,914.419846 98.687793,913.074791 99.660585,914.847202 114.964147,907.878774 113.976902,906.105976 116.804061,904.790627 117.686132,906.438260 132.757248,899.508193 131.895552,897.638612 134.735403,896.390356 135.532928,898.224858 151.081635,891.018312 150.336616,889.385444 152.638608,888.234131 153.959041,890.805638 172.452578,881.942095 171.580744,879.638384 180.168668,875.773133 181.267276,875.535383 182.700595,875.495658 184.085937,875.899633 185.326669,876.844858 190.640385,886.742417 47.646281,952.844435"/>
    <poly id="1162818566" type="landuse" color="194,194,130" fill="1" layer="22.357" shape="241.035880,606.924684 224.594868,614.463243 213.712215,619.457678 204.711957,623.578907 201.218013,615.965794 200.610620,616.227740 202.601032,620.808361 146.990230,645.671228 145.154642,641.795587 140.518458,643.941630 142.863121,648.531652 101.458877,666.920286 99.658227,663.090088 97.147703,664.191383 100.117497,670.844907 103.338673,669.406533 106.049433,675.463577 159.285557,650.926484 160.913732,654.440629 169.329387,650.537390 167.927307,648.041581 170.637174,646.789880 172.048090,649.497289 179.036390,646.223549 177.142569,642.090484 209.076426,627.566376 207.848146,625.064058 242.267236,609.582834 241.035880,606.924684"/>
    <poly id="1162818567" type="landuse" color="194,194,130" fill="1" layer="6.904" shape="195.588019,673.663042 195.497220,674.628452 195.101205,675.374374 194.406442,676.201341 193.540556,676.934758 192.386406,677.627131 185.990343,680.393765 185.136613,678.224028 195.588019,673.663042"/>
    <poly id="1162818568" type="landuse" color="194,194,130" fill="1" layer="29.222" shape="180.129832,680.705032 180.970585,682.818800 173.707636,686.085227 172.748558,684.068432 180.129832,680.705032"/>
    <poly id="1162818571" type="landuse" color="194,194,130" fill="1" layer="22.247" shape="299.913943,671.823938 300.796030,671.569319 310.053185,696.912638 304.701450,699.306471 301.022029,686.170617 300.213594,682.845124 299.763044,679.662656 299.843748,676.360844 299.913943,671.823938"/>
    <poly id="1162818573" type="landuse" color="194,194,130" fill="1" layer="20.7" shape="256.262615,552.887042 258.449105,551.732692 262.469081,559.693581 266.150548,568.413047 280.679362,604.709626 283.708265,613.211491 287.740201,625.066278 290.501466,635.196314 293.824054,647.065591 296.793178,658.625097 295.371248,659.321441 294.912822,659.965575 294.436806,660.998595 293.497479,657.969978 291.111147,648.973494 289.753082,643.197111 285.798853,628.696772 280.630587,612.517689 271.871610,589.101106 266.749691,576.883578 258.545969,557.875964 256.262615,552.887042"/>
    <poly id="1162818574" type="landuse" color="194,194,130" fill="1" layer="16.124" shape="125.983917,705.729436 125.949055,706.496094 125.749115,707.213864 125.319037,707.881013 124.685964,708.565012 123.792656,709.242088 122.377695,709.949786 121.470387,707.889879 125.983917,705.729436"/>
    <poly id="1162818575" type="landuse" color="194,194,130" fill="1" layer="8.941" shape="167.956322,686.099053 169.046407,688.085961 140.684082,701.615107 139.695648,701.789050 138.398744,701.865792 137.260741,701.679774 136.146659,701.138412 167.956322,686.099053"/>
    <poly id="1162818576" type="landuse" color="194,194,130" fill="1" layer="15.218" shape="296.806272,819.740866 298.659226,823.772772 249.870886,847.292191 246.292097,849.666533 242.886284,852.879815 238.253512,858.162955 234.221867,862.060421 230.794893,864.438813 227.171568,866.856479 218.438132,872.653438 196.593245,883.496775 192.231637,875.604702 191.871980,873.626103 191.988646,871.960542 192.635489,870.487082 194.263933,869.095370 196.665832,867.724246 259.682109,839.054350 258.919698,837.532248 296.806272,819.740866"/>
    <poly id="1162818577" type="landuse" color="194,194,130" fill="1" layer="20.346" shape="265.699453,641.321775 266.542253,643.357741 258.173436,647.128587 211.374467,668.965964 210.021497,668.974450 208.792897,668.930624 208.090688,668.678321 207.294969,668.134293 265.699453,641.321775"/>
    <poly id="1162818582" type="landuse" color="194,194,130" fill="1" layer="42.937" shape="268.930623,651.464311 269.946226,654.617323 196.664336,688.398197 195.700109,686.303389 258.126751,656.761114 268.930623,651.464311"/>
    <poly id="1162818583" type="landuse" color="194,194,130" fill="1" layer="37.889" shape="173.006161,696.679275 173.880100,698.905170 127.363720,720.483767 126.456120,718.434976 173.006161,696.679275"/>
    <poly id="1171633508" type="parking" color="184,184,179" fill="1" layer="30.301" shape="669.438011,1544.015469 668.055208,1548.940064 680.220741,1552.190744 681.537021,1547.319997 669.438011,1544.015469"/>
    <poly id="1175647174" type="landuse" color="194,194,130" fill="0" layer="5.031" shape="426.974153,648.900100 399.012841,662.004775 405.286060,676.066418"/>
    <poly id="1175890535" type="commercial" color="209,209,204" fill="1" layer="4.901" shape="117.908247,236.119345 84.610591,245.813183 123.560380,314.107277 131.674958,325.892518 205.546995,426.943316 261.647911,524.240364 289.269064,584.769747 258.978101,598.703054 224.594868,614.463243 213.712215,619.457678 204.711957,623.578907 102.427784,670.472501 91.399013,675.530031 26.882099,705.107595 -12.757922,723.288099 -39.223398,735.422391 -27.230306,818.740385 -22.921950,849.880894 -17.544911,849.245084 -10.787172,887.292226 -1.626232,967.998691 337.028732,810.399807 397.806285,784.630914 569.801766,727.521348 545.508088,665.243584 659.465707,613.185417 640.563471,568.460973 583.659596,594.775657 541.025159,499.747609 490.980385,521.674094 429.878110,396.118558 369.599694,423.624871 388.417644,465.642749 335.164873,489.064836 284.026161,366.824631 298.807653,357.250748 209.593039,304.815704 202.771380,289.849788 167.212067,211.889172 117.908247,236.119345"/>
    <poly id="1175905360" type="amenity" color="237,199,199" fill="1" layer="20.943" shape="1110.464005,846.623358 1114.913941,840.368191 1110.434278,837.200086 1105.984346,843.455257 1110.464005,846.623358"/>
    <poly id="1175905360#1" type="building" color="255,230,230" fill="1" layer="17.296" shape="1110.464005,846.623358 1114.913941,840.368191 1110.434278,837.200086 1105.984346,843.455257 1110.464005,846.623358"/>
    <poly id="1175905361" type="amenity" color="237,199,199" fill="1" layer="10.86" shape="1134.252135,820.839784 1143.098664,801.953701 1137.990335,799.569699 1129.143821,818.455790 1134.252135,820.839784"/>
    <poly id="1175905361#1" type="building" color="255,230,230" fill="1" layer="2.796" shape="1134.252135,820.839784 1143.098664,801.953701 1137.990335,799.569699 1129.143821,818.455790 1134.252135,820.839784"/>
    <poly id="1175905362" type="amenity" color="237,199,199" fill="1" layer="12.082" shape="832.778311,1006.394300 833.699537,1001.969126 828.455610,1000.872229 827.534091,1005.308521 832.778311,1006.394300"/>
    <poly id="1175905362#1" type="building" color="255,230,230" fill="1" layer="27.04" shape="832.778311,1006.394300 833.699537,1001.969126 828.455610,1000.872229 827.534091,1005.308521 832.778311,1006.394300"/>
    <poly id="1175905363" type="amenity" color="237,199,199" fill="1" layer="14.253" shape="931.304549,934.806435 934.072443,928.684127 937.767929,930.340422 935.000031,936.462728 931.304549,934.806435"/>
    <poly id="1175905363#1" type="building" color="255,230,230" fill="1" layer="11.363" shape="931.304549,934.806435 934.072443,928.684127 937.767929,930.340422 935.000031,936.462728 931.304549,934.806435"/>
    <poly id="1175905364" type="amenity" color="237,199,199" fill="1" layer="8.472" shape="798.639585,895.026561 802.887673,895.496084 803.375472,891.048197 799.134313,890.589983 798.639585,895.026561"/>
    <poly id="1175905364#1" type="building" color="255,230,230" fill="1" layer="12.43" shape="798.639585,895.026561 802.887673,895.496084 803.375472,891.048197 799.134313,890.589983 798.639585,895.026561"/>
    <poly id="1175905365" type="amenity" color="237,199,199" fill="1" layer="19.756" shape="780.047092,943.010244 784.012438,944.584648 785.671329,940.435045 781.705979,938.860639 780.047092,943.010244"/>
    <poly id="1175905365#1" type="building" color="255,230,230" fill="1" layer="7.468" shape="780.047092,943.010244 784.012438,944.584648 785.671329,940.435045 781.705979,938.860639 780.047092,943.010244"/>
    <poly id="1175905366" type="amenity" color="237,199,199" fill="1" layer="13.907" shape="755.824610,1005.438887 759.860021,1006.826031 761.318265,1002.604313 757.282851,1001.217168 755.824610,1005.438887"/>
    <poly id="1175905366#1" type="building" color="255,230,230" fill="1" layer="11.046" shape="755.824610,1005.438887 759.860021,1006.826031 761.318265,1002.604313 757.282851,1001.217168 755.824610,1005.438887"/>
    <poly id="1175905367" type="amenity" color="237,199,199" fill="1" layer="4.786" shape="746.225677,1044.696632 750.456817,1045.254663 751.045171,1040.831708 746.814028,1040.273677 746.225677,1044.696632"/>
    <poly id="1175905367#1" type="building" color="255,230,230" fill="1" layer="11.672" shape="746.225677,1044.696632 750.456817,1045.254663 751.045171,1040.831708 746.814028,1040.273677 746.225677,1044.696632"/>
    <poly id="1175905368" type="amenity" color="237,199,199" fill="1" layer="17.623" shape="934.726478,878.007214 938.824533,879.218172 940.089261,874.935695 935.991203,873.724736 934.726478,878.007214"/>
    <poly id="1175905368#1" type="building" color="255,230,230" fill="1" layer="3.806" shape="934.726478,878.007214 938.824533,879.218172 940.089261,874.935695 935.991203,873.724736 934.726478,878.007214"/>
    <poly id="1175905369" type="amenity" color="237,199,199" fill="1" layer="9.867" shape="907.678448,934.574934 911.543851,936.369250 913.438706,932.326113 909.566072,930.531603 907.678448,934.574934"/>
    <poly id="1175905369#1" type="building" color="255,230,230" fill="1" layer="15.909" shape="907.678448,934.574934 911.543851,936.369250 913.438706,932.326113 909.566072,930.531603 907.678448,934.574934"/>