<?xml version="1.0" encoding="UTF-8"?>

<!-- generated on 2023-10-30 14:38:42 by Eclipse SUMO netconvert Version 8df0f7221e0
<configuration xmlns:xsi="http://www.w3.org/2001/XMLSchema-instance" xsi:noNamespaceSchemaLocation="http://sumo.dlr.de/xsd/netconvertConfiguration.xsd">

    <input>
        <type-files value="osmNetconvert.typ.xml"/>
        <osm-files value="map.osm"/>
    </input>

    <output>
        <output-file value="test.net.xml"/>
    </output>

    <projection>
        <proj.utm value="true"/>
    </projection>

    <report>
        <xml-validation value="never"/>
    </report>

</configuration>
-->

<net version="1.16" junctionCornerDetail="5" limitTurnSpeed="5.50" xmlns:xsi="http://www.w3.org/2001/XMLSchema-instance" xsi:noNamespaceSchemaLocation="http://sumo.dlr.de/xsd/net_file.xsd">

    <location netOffset="-644552.21,-5492776.91" convBoundary="0.00,0.00,1726.98,1724.88" origBoundary="10.999655,49.570289,11.023302,49.585697" projParameter="+proj=utm +zone=32 +ellps=WGS84 +datum=WGS84 +units=m +no_defs"/>

    <type id="highway.cycleway" priority="1" numLanes="1" speed="5.56" allow="bicycle" oneway="0" width="2.00"/>
    <type id="highway.footway" priority="1" numLanes="1" speed="2.78" allow="pedestrian" oneway="1" width="2.00"/>
    <type id="highway.living_street" priority="2" numLanes="1" speed="2.78" disallow="tram rail_urban rail rail_electric rail_fast ship" oneway="0"/>
    <type id="highway.path" priority="1" numLanes="1" speed="5.56" allow="pedestrian bicycle" oneway="0" width="2.00"/>
    <type id="highway.pedestrian" priority="1" numLanes="1" speed="2.78" allow="pedestrian" oneway="1" width="2.00"/>
    <type id="highway.primary" priority="12" numLanes="2" speed="27.78" disallow="tram rail_urban rail rail_electric rail_fast ship" oneway="0"/>
    <type id="highway.primary_link" priority="7" numLanes="1" speed="22.22" disallow="tram rail_urban rail rail_electric rail_fast ship" oneway="0"/>
    <type id="highway.residential" priority="3" numLanes="1" speed="13.89" disallow="tram rail_urban rail rail_electric rail_fast ship" oneway="0"/>
    <type id="highway.service" priority="1" numLanes="1" speed="5.56" allow="pedestrian delivery bicycle" oneway="0"/>
    <type id="highway.steps" priority="1" numLanes="1" speed="1.39" allow="pedestrian" oneway="1" width="2.00"/>
    <type id="highway.tertiary" priority="10" numLanes="1" speed="22.22" disallow="tram rail_urban rail rail_electric rail_fast ship" oneway="0"/>
    <type id="highway.tertiary_link" priority="5" numLanes="1" speed="22.22" disallow="tram rail_urban rail rail_electric rail_fast ship" oneway="0"/>
    <type id="highway.track" priority="1" numLanes="1" speed="5.56" allow="pedestrian motorcycle moped bicycle" oneway="0"/>
    <type id="highway.trunk" priority="13" numLanes="2" speed="27.78" disallow="pedestrian bicycle tram rail_urban rail rail_electric rail_fast ship" oneway="0"/>
    <type id="highway.unclassified" priority="4" numLanes="1" speed="13.89" disallow="tram rail_urban rail rail_electric rail_fast ship" oneway="0"/>

    <edge id=":10039694655_0" function="internal">
        <lane id=":10039694655_0_0" index="0" allow="pedestrian delivery bicycle" speed="5.56" length="6.18" shape="508.23,717.28 505.69,711.64"/>
    </edge>
    <edge id=":10039694655_1" function="internal">
        <lane id=":10039694655_1_0" index="0" allow="pedestrian delivery bicycle" speed="3.65" length="4.67" shape="508.23,717.28 508.47,715.85 509.03,715.16 509.93,715.20 511.15,715.97"/>
    </edge>
    <edge id=":10039694655_2" function="internal">
        <lane id=":10039694655_2_0" index="0" allow="pedestrian delivery bicycle" speed="5.00" length="5.04" shape="512.79,711.90 511.59,712.60 510.91,713.51 510.77,714.64 511.15,715.97"/>
    </edge>
    <edge id=":10039694655_3" function="internal">
        <lane id=":10039694655_3_0" index="0" allow="pedestrian delivery bicycle" speed="5.56" length="7.75" shape="512.79,711.90 510.13,712.78 508.07,713.03 506.59,712.65 505.69,711.64"/>
    </edge>
    <edge id=":10039694655_4" function="internal">
        <lane id=":10039694655_4_0" index="0" allow="pedestrian delivery bicycle" speed="5.56" length="6.19" shape="508.61,710.32 511.15,715.97"/>
    </edge>
    <edge id=":10039694655_5" function="internal">
        <lane id=":10039694655_5_0" index="0" allow="pedestrian delivery bicycle" speed="3.65" length="4.67" shape="508.61,710.32 508.37,711.74 507.81,712.44 506.92,712.40 505.69,711.64"/>
    </edge>
    <edge id=":10039694656_0" function="internal">
        <lane id=":10039694656_0_0" index="0" allow="pedestrian delivery bicycle" speed="5.56" length="4.80" shape="515.96,735.16 514.17,730.70"/>
    </edge>
    <edge id=":10039694656_1" function="internal">
        <lane id=":10039694656_1_0" index="0" allow="pedestrian delivery bicycle" speed="3.65" length="4.67" shape="515.96,735.16 516.29,733.76 516.89,733.10 517.78,733.19 518.96,734.03"/>
    </edge>
    <edge id=":10039694656_2" function="internal">
        <lane id=":10039694656_2_0" index="0" allow="pedestrian delivery bicycle" speed="5.56" length="4.93" shape="517.12,729.45 518.96,734.03"/>
    </edge>
    <edge id=":10039694656_3" function="internal">
        <lane id=":10039694656_3_0" index="0" allow="pedestrian delivery bicycle" speed="3.65" length="4.67" shape="517.12,729.45 516.85,730.87 516.27,731.55 515.38,731.50 514.17,730.70"/>
    </edge>
    <edge id=":10039694657_0" function="internal">
        <lane id=":10039694657_0_0" index="0" allow="bicycle" speed="5.56" length="5.01" width="2.00" shape="557.71,716.98 555.65,712.41"/>
    </edge>
    <edge id=":10039694657_1" function="internal">
        <lane id=":10039694657_1_0" index="0" allow="bicycle" speed="2.89" length="1.27" width="2.00" shape="557.71,716.98 557.86,716.09 558.09,715.80"/>
    </edge>
    <edge id=":10039694657_4" function="internal">
        <lane id=":10039694657_4_0" index="0" allow="bicycle" speed="2.89" length="1.65" width="2.00" shape="558.09,715.80 558.21,715.65 558.77,715.68 559.54,716.16"/>
    </edge>
    <edge id=":10039694657_2" function="internal">
        <lane id=":10039694657_2_0" index="0" allow="bicycle" speed="5.56" length="5.02" width="2.00" shape="557.47,711.59 559.54,716.16"/>
    </edge>
    <edge id=":10039694657_3" function="internal">
        <lane id=":10039694657_3_0" index="0" allow="bicycle" speed="2.89" length="1.27" width="2.00" shape="557.47,711.59 557.33,712.48 557.09,712.77"/>
    </edge>
    <edge id=":10039694657_5" function="internal">
        <lane id=":10039694657_5_0" index="0" allow="bicycle" speed="2.89" length="1.65" width="2.00" shape="557.09,712.77 556.98,712.91 556.42,712.89 555.65,712.41"/>
    </edge>
    <edge id=":10039694658_0" function="internal">
        <lane id=":10039694658_0_0" index="0" allow="pedestrian delivery bicycle" speed="5.56" length="5.03" shape="514.12,730.59 512.11,725.98"/>
    </edge>
    <edge id=":10039694658_1" function="internal">
        <lane id=":10039694658_1_0" index="0" allow="pedestrian delivery bicycle" speed="3.65" length="1.44" shape="514.12,730.59 514.39,729.17"/>
    </edge>
    <edge id=":10039694658_4" function="internal">
        <lane id=":10039694658_4_0" index="0" allow="pedestrian delivery bicycle" speed="3.65" length="3.23" shape="514.39,729.17 514.97,728.49 515.86,728.55 517.07,729.34"/>
    </edge>
    <edge id=":10039694658_2" function="internal">
        <lane id=":10039694658_2_0" index="0" allow="pedestrian delivery bicycle" speed="5.56" length="5.09" shape="515.03,724.68 517.07,729.34"/>
    </edge>
    <edge id=":10039694658_3" function="internal">
        <lane id=":10039694658_3_0" index="0" allow="pedestrian delivery bicycle" speed="3.65" length="1.44" shape="515.03,724.68 514.79,726.10"/>
    </edge>
    <edge id=":10039694658_5" function="internal">
        <lane id=":10039694658_5_0" index="0" allow="pedestrian delivery bicycle" speed="3.65" length="3.23" shape="514.79,726.10 514.23,726.79 513.33,726.75 512.11,725.98"/>
    </edge>
    <edge id=":10039694661_0" function="internal">
        <lane id=":10039694661_0_0" index="0" allow="pedestrian bicycle" speed="2.89" length="2.92" width="2.00" shape="434.36,753.14 435.25,753.29 435.68,753.65 435.66,754.21 435.17,754.97"/>
    </edge>
    <edge id=":10039694662_0" function="internal">
        <lane id=":10039694662_0_0" index="0" allow="pedestrian delivery bicycle" speed="5.56" length="2.78" shape="484.84,665.33 485.53,662.63"/>
    </edge>
    <edge id=":10039694662_1" function="internal">
        <lane id=":10039694662_1_0" index="0" allow="pedestrian delivery bicycle" speed="3.65" length="4.67" shape="484.84,665.33 485.18,663.92 485.80,663.27 486.68,663.38 487.85,664.23"/>
    </edge>
    <edge id=":10039694663_0" function="internal">
        <lane id=":10039694663_0_0" index="0" allow="bicycle" speed="2.89" length="2.92" width="2.00" shape="517.98,629.76 518.12,628.87 518.47,628.43 519.03,628.45 519.79,628.93"/>
    </edge>
    <edge id=":10039694665_0" function="internal">
        <lane id=":10039694665_0_0" index="0" allow="pedestrian bicycle" speed="5.56" length="7.07" width="2.00" shape="569.20,732.62 562.40,734.57"/>
    </edge>
    <edge id=":10039694665_1" function="internal">
        <lane id=":10039694665_1_0" index="0" allow="bicycle" speed="5.56" length="7.37" width="2.00" shape="569.20,732.62 567.35,732.86 565.75,732.42 564.41,731.30 563.33,729.50"/>
    </edge>
    <edge id=":10039694665_2" function="internal">
        <lane id=":10039694665_2_0" index="0" allow="pedestrian bicycle" speed="2.89" length="2.92" width="2.00" shape="569.20,732.62 568.33,732.35 567.95,731.94 568.05,731.39 568.63,730.70"/>
    </edge>
    <edge id=":10039694665_3" function="internal">
        <lane id=":10039694665_3_0" index="0" allow="bicycle" speed="4.86" length="4.45" width="2.00" shape="565.15,728.68 565.82,729.82 566.62,730.53 567.56,730.82 568.63,730.70"/>
    </edge>
    <edge id=":10039694665_4" function="internal">
        <lane id=":10039694665_4_0" index="0" allow="bicycle" speed="5.56" length="7.69" width="2.00" shape="565.15,728.68 565.74,730.75 565.48,732.42 564.37,733.70 562.40,734.57"/>
    </edge>
    <edge id=":10039694665_5" function="internal">
        <lane id=":10039694665_5_0" index="0" allow="bicycle" speed="2.89" length="2.92" width="2.00" shape="565.15,728.68 565.00,729.57 564.65,730.00 564.09,729.98 563.33,729.50"/>
    </edge>
    <edge id=":10039694665_6" function="internal">
        <lane id=":10039694665_6_0" index="0" allow="bicycle" speed="4.28" length="4.11" width="2.00" shape="561.86,732.65 562.91,732.18 563.50,731.50 563.64,730.61 563.33,729.50"/>
    </edge>
    <edge id=":10039694665_7" function="internal">
        <lane id=":10039694665_7_0" index="0" allow="pedestrian bicycle" speed="5.56" length="7.05" width="2.00" shape="561.86,732.65 568.63,730.70"/>
    </edge>
    <edge id=":10039694665_8" function="internal">
        <lane id=":10039694665_8_0" index="0" allow="pedestrian bicycle" speed="2.89" length="2.92" width="2.00" shape="561.86,732.65 562.71,732.93 563.09,733.34 562.99,733.89 562.40,734.57"/>
    </edge>
    <edge id=":10044608708_0" function="internal">
        <lane id=":10044608708_0_0" index="0" allow="pedestrian delivery bicycle" speed="5.56" length="6.80" shape="485.45,662.45 484.84,660.38 484.88,658.72 485.57,657.48 486.91,656.65"/>
    </edge>
    <edge id=":10126757257_0" function="internal">
        <lane id=":10126757257_0_0" index="0" allow="pedestrian bicycle" speed="5.56" length="0.33" width="2.00" shape="1220.02,925.21 1220.10,925.52"/>
    </edge>
    <edge id=":10126757257_1" function="internal">
        <lane id=":10126757257_1_0" index="0" allow="pedestrian bicycle" speed="5.56" length="0.32" width="2.00" shape="1222.04,925.03 1221.96,924.71"/>
    </edge>
    <edge id=":10127173681_0" function="internal">
        <lane id=":10127173681_0_0" index="0" disallow="tram rail_urban rail rail_electric rail_fast ship" speed="13.89" length="9.21" shape="1258.72,1129.81 1257.59,1120.67"/>
    </edge>
    <edge id=":10127173681_1" function="internal">
        <lane id=":10127173681_1_0" index="0" allow="pedestrian delivery bicycle" speed="6.75" length="3.23" shape="1258.72,1129.81 1258.79,1126.98 1258.96,1126.62"/>
    </edge>
    <edge id=":10127173681_7" function="internal">
        <lane id=":10127173681_7_0" index="0" allow="pedestrian delivery bicycle" speed="6.75" length="7.17" shape="1258.96,1126.62 1259.80,1124.91 1261.75,1123.62 1264.63,1123.09"/>
    </edge>
    <edge id=":10127173681_2" function="internal">
        <lane id=":10127173681_2_0" index="0" allow="pedestrian delivery bicycle" speed="4.89" length="4.93" shape="1264.76,1126.29 1263.37,1126.54 1262.43,1127.14 1261.94,1128.10 1261.90,1129.42"/>
    </edge>
    <edge id=":10127173681_3" function="internal">
        <lane id=":10127173681_3_0" index="0" allow="pedestrian delivery bicycle" speed="7.08" length="10.20" shape="1264.76,1126.29 1261.90,1126.04 1259.75,1125.02 1258.31,1123.23 1257.59,1120.67"/>
    </edge>
    <edge id=":10127173681_4" function="internal">
        <lane id=":10127173681_4_0" index="0" allow="pedestrian delivery bicycle" speed="3.65" length="4.67" shape="1264.76,1126.29 1263.53,1125.54 1263.10,1124.76 1263.46,1123.94 1264.63,1123.09"/>
    </edge>
    <edge id=":10127173681_5" function="internal">
        <lane id=":10127173681_5_0" index="0" allow="pedestrian delivery bicycle" speed="5.32" length="5.34" shape="1260.77,1120.28 1261.15,1121.57 1261.92,1122.46 1263.08,1122.97 1264.63,1123.09"/>
    </edge>
    <edge id=":10127173681_6" function="internal">
        <lane id=":10127173681_6_0" index="0" disallow="tram rail_urban rail rail_electric rail_fast ship" speed="13.89" length="9.20" shape="1260.77,1120.28 1261.90,1129.42"/>
    </edge>
    <edge id=":10127173682_0" function="internal">
        <lane id=":10127173682_0_0" index="0" allow="pedestrian delivery bicycle" speed="5.16" length="5.15" shape="1286.97,1128.42 1286.66,1127.10 1285.97,1126.18 1284.90,1125.65 1283.46,1125.52"/>
    </edge>
    <edge id=":10127173682_1" function="internal">
        <lane id=":10127173682_1_0" index="0" allow="pedestrian delivery bicycle" speed="5.56" length="9.40" shape="1286.97,1128.42 1286.24,1119.04"/>
    </edge>
    <edge id=":10127173682_2" function="internal">
        <lane id=":10127173682_2_0" index="0" allow="pedestrian delivery bicycle" speed="3.65" length="4.67" shape="1286.97,1128.42 1287.67,1127.16 1288.44,1126.70 1289.27,1127.04 1290.16,1128.17"/>
    </edge>
    <edge id=":10127173682_3" function="internal">
        <lane id=":10127173682_3_0" index="0" allow="pedestrian delivery bicycle" speed="5.56" length="9.40" shape="1289.43,1118.79 1290.16,1128.17"/>
    </edge>
    <edge id=":10127173682_4" function="internal">
        <lane id=":10127173682_4_0" index="0" allow="pedestrian delivery bicycle" speed="5.56" length="10.34" shape="1289.43,1118.79 1289.24,1121.64 1288.19,1123.71 1286.26,1125.00 1283.46,1125.52"/>
    </edge>
    <edge id=":10127173682_5" function="internal">
        <lane id=":10127173682_5_0" index="0" allow="pedestrian delivery bicycle" speed="3.65" length="4.67" shape="1289.43,1118.79 1288.72,1120.05 1287.95,1120.51 1287.13,1120.18 1286.24,1119.04"/>
    </edge>
    <edge id=":10127173682_6" function="internal">
        <lane id=":10127173682_6_0" index="0" allow="pedestrian delivery bicycle" speed="5.00" length="5.04" shape="1283.32,1122.32 1284.69,1122.07 1285.63,1121.44 1286.15,1120.43 1286.24,1119.04"/>
    </edge>
    <edge id=":10127173682_7" function="internal">
        <lane id=":10127173682_7_0" index="0" allow="pedestrian delivery bicycle" speed="5.56" length="10.17" shape="1283.32,1122.32 1286.13,1122.59 1288.21,1123.65 1289.55,1125.51 1290.16,1128.17"/>
    </edge>
    <edge id=":10127173682_8" function="internal">
        <lane id=":10127173682_8_0" index="0" allow="pedestrian delivery bicycle" speed="3.65" length="4.67" shape="1283.32,1122.32 1284.56,1123.07 1284.99,1123.86 1284.62,1124.67 1283.46,1125.52"/>
    </edge>
    <edge id=":1014279519_0" function="internal">
        <lane id=":1014279519_0_0" index="0" allow="pedestrian delivery bicycle" speed="5.56" length="10.79" shape="737.93,715.18 737.42,704.40"/>
    </edge>
    <edge id=":1014279519_1" function="internal">
        <lane id=":1014279519_1_0" index="0" allow="pedestrian delivery bicycle" speed="6.22" length="8.26" shape="737.93,715.18 738.25,713.49 739.38,712.26 741.33,711.48 744.08,711.16"/>
    </edge>
    <edge id=":1014279519_2" function="internal">
        <lane id=":1014279519_2_0" index="0" allow="pedestrian delivery bicycle" speed="3.65" length="4.67" shape="737.93,715.18 738.68,713.95 739.46,713.51 740.28,713.87 741.13,715.04"/>
    </edge>
    <edge id=":1014279519_3" function="internal">
        <lane id=":1014279519_3_0" index="0" allow="pedestrian delivery bicycle" speed="5.35" length="5.68" shape="740.62,704.25 740.90,705.91 741.55,707.08 742.58,707.77 743.98,707.96"/>
    </edge>
    <edge id=":1014279519_4" function="internal">
        <lane id=":1014279519_4_0" index="0" allow="pedestrian delivery bicycle" speed="5.56" length="10.80" shape="740.62,704.25 741.13,715.04"/>
    </edge>
    <edge id=":1014279519_5" function="internal">
        <lane id=":1014279519_5_0" index="0" allow="pedestrian delivery bicycle" speed="3.65" length="4.67" shape="740.62,704.25 739.88,705.48 739.10,705.92 738.28,705.56 737.42,704.40"/>
    </edge>
    <edge id=":1014279519_6" function="internal">
        <lane id=":1014279519_6_0" index="0" allow="pedestrian delivery bicycle" speed="4.70" length="4.27" shape="734.40,706.65 735.76,706.48 736.72,706.04 737.27,705.35 737.42,704.40"/>
    </edge>
    <edge id=":1014279519_7" function="internal">
        <lane id=":1014279519_7_0" index="0" disallow="tram rail_urban rail rail_electric rail_fast ship" speed="16.67" length="9.72" shape="734.40,706.65 737.26,706.82 739.19,707.31 741.13,707.80 743.98,707.96"/>
        <lane id=":1014279519_7_1" index="1" disallow="tram rail_urban rail rail_electric rail_fast ship" speed="16.67" length="9.72" shape="734.49,709.85 737.35,710.01 739.29,710.51 741.22,711.00 744.08,711.16"/>
    </edge>
    <edge id=":1014279519_9" function="internal">
        <lane id=":1014279519_9_0" index="0" allow="pedestrian delivery bicycle" speed="5.96" length="7.32" shape="734.59,713.05 737.41,713.10 739.45,713.45 740.68,714.09 741.13,715.04"/>
    </edge>
    <edge id=":10151263977_0" function="internal">
        <lane id=":10151263977_0_0" index="0" allow="pedestrian delivery bicycle" speed="5.07" length="5.03" shape="546.87,1218.37 546.67,1217.00 546.08,1216.02 545.11,1215.43 543.75,1215.24"/>
    </edge>
    <edge id=":10151263977_1" function="internal">
        <lane id=":10151263977_1_0" index="0" allow="pedestrian delivery bicycle" speed="6.86" length="10.20" shape="546.87,1218.37 547.24,1215.60 548.41,1213.62 550.38,1212.43 553.15,1212.03"/>
    </edge>
    <edge id=":10151263977_2" function="internal">
        <lane id=":10151263977_2_0" index="0" allow="pedestrian delivery bicycle" speed="3.65" length="4.67" shape="546.87,1218.37 547.66,1217.16 548.46,1216.76 549.26,1217.15 550.07,1218.34"/>
    </edge>
    <edge id=":10151263977_3" function="internal">
        <lane id=":10151263977_3_0" index="0" allow="pedestrian delivery bicycle" speed="5.03" length="5.01" shape="553.15,1215.23 551.79,1215.42 550.83,1216.01 550.25,1216.98 550.07,1218.34"/>
    </edge>
    <edge id=":10151263977_4" function="internal">
        <lane id=":10151263977_4_0" index="0" disallow="tram rail_urban rail rail_electric rail_fast ship" speed="8.33" length="9.40" shape="553.15,1215.23 543.75,1215.24"/>
    </edge>
    <edge id=":10151263977_5" function="internal">
        <lane id=":10151263977_5_0" index="0" disallow="tram rail_urban rail rail_electric rail_fast ship" speed="8.33" length="9.40" shape="543.75,1212.04 553.15,1212.03"/>
    </edge>
    <edge id=":10151263977_6" function="internal">
        <lane id=":10151263977_6_0" index="0" allow="pedestrian delivery bicycle" speed="6.88" length="3.25" shape="543.75,1212.04 546.49,1212.43 546.90,1212.68"/>
    </edge>
    <edge id=":10151263977_7" function="internal">
        <lane id=":10151263977_7_0" index="0" allow="pedestrian delivery bicycle" speed="6.88" length="6.91" shape="546.90,1212.68 548.46,1213.61 549.65,1215.58 550.07,1218.34"/>
    </edge>
    <edge id=":10151263978_0" function="internal">
        <lane id=":10151263978_0_0" index="0" allow="pedestrian delivery bicycle" speed="3.65" length="4.67" shape="550.55,1271.86 549.76,1273.07 548.96,1273.47 548.16,1273.08 547.35,1271.89"/>
    </edge>
    <edge id=":10151758558_0" function="internal">
        <lane id=":10151758558_0_0" index="0" allow="pedestrian bicycle" speed="5.56" length="4.92" width="2.00" shape="324.58,696.02 322.50,691.56"/>
    </edge>
    <edge id=":10151758558_1" function="internal">
        <lane id=":10151758558_1_0" index="0" allow="pedestrian bicycle" speed="2.89" length="2.92" width="2.00" shape="324.58,696.02 324.73,695.13 325.08,694.69 325.64,694.72 326.41,695.19"/>
    </edge>
    <edge id=":10151758558_2" function="internal">
        <lane id=":10151758558_2_0" index="0" allow="pedestrian bicycle" speed="5.56" length="4.97" width="2.00" shape="324.30,690.69 326.41,695.19"/>
    </edge>
    <edge id=":10151758558_3" function="internal">
        <lane id=":10151758558_3_0" index="0" allow="pedestrian bicycle" speed="2.89" length="2.92" width="2.00" shape="324.30,690.69 324.18,691.58 323.84,692.03 323.28,692.02 322.50,691.56"/>
    </edge>
    <edge id=":10203661723_0" function="internal">
        <lane id=":10203661723_0_0" index="0" allow="pedestrian bicycle" speed="5.56" length="4.74" width="2.00" shape="338.94,730.73 338.55,729.38 338.26,728.46 337.94,727.56 337.43,726.24"/>
    </edge>
    <edge id=":10203661723_1" function="internal">
        <lane id=":10203661723_1_0" index="0" allow="pedestrian bicycle" speed="2.89" length="2.92" width="2.00" shape="338.94,730.73 339.22,729.87 339.63,729.50 340.18,729.60 340.87,730.19"/>
    </edge>
    <edge id=":10203661723_2" function="internal">
        <lane id=":10203661723_2_0" index="0" allow="pedestrian bicycle" speed="5.56" length="4.92" width="2.00" shape="339.30,725.53 339.82,726.89 340.16,727.83 340.46,728.78 340.87,730.19"/>
    </edge>
    <edge id=":10203661723_3" function="internal">
        <lane id=":10203661723_3_0" index="0" allow="pedestrian bicycle" speed="2.89" length="2.92" width="2.00" shape="339.30,725.53 339.10,726.41 338.72,726.82 338.17,726.76 337.43,726.24"/>
    </edge>
    <edge id=":10203661725_0" function="internal">
        <lane id=":10203661725_0_0" index="0" allow="pedestrian bicycle" speed="5.56" length="4.80" width="2.00" shape="332.95,714.54 331.08,710.12"/>
    </edge>
    <edge id=":10203661725_1" function="internal">
        <lane id=":10203661725_1_0" index="0" allow="pedestrian bicycle" speed="2.89" length="2.92" width="2.00" shape="332.95,714.54 333.15,713.66 333.52,713.24 334.08,713.30 334.82,713.82"/>
    </edge>
    <edge id=":10203661725_2" function="internal">
        <lane id=":10203661725_2_0" index="0" allow="pedestrian bicycle" speed="5.56" length="4.93" width="2.00" shape="332.89,709.28 334.82,713.82"/>
    </edge>
    <edge id=":10203661725_3" function="internal">
        <lane id=":10203661725_3_0" index="0" allow="pedestrian bicycle" speed="2.89" length="2.92" width="2.00" shape="332.89,709.28 332.75,710.17 332.40,710.61 331.85,710.59 331.08,710.12"/>
    </edge>
    <edge id=":10203661727_0" function="internal">
        <lane id=":10203661727_0_0" index="0" allow="pedestrian bicycle" speed="4.63" length="4.21" width="2.00" shape="327.56,702.53 326.95,701.62 326.16,701.11 325.18,701.00 324.02,701.28"/>
    </edge>
    <edge id=":10203661727_1" function="internal">
        <lane id=":10203661727_1_0" index="0" allow="pedestrian bicycle" speed="5.56" length="7.00" width="2.00" shape="327.56,702.53 324.65,696.16"/>
    </edge>
    <edge id=":10203661727_2" function="internal">
        <lane id=":10203661727_2_0" index="0" allow="pedestrian bicycle" speed="2.89" length="2.92" width="2.00" shape="327.56,702.53 327.69,701.64 328.04,701.20 328.60,701.21 329.37,701.69"/>
    </edge>
    <edge id=":10203661727_3" function="internal">
        <lane id=":10203661727_3_0" index="0" allow="pedestrian bicycle" speed="5.56" length="6.98" width="2.00" shape="326.47,695.34 329.37,701.69"/>
    </edge>
    <edge id=":10203661727_4" function="internal">
        <lane id=":10203661727_4_0" index="0" allow="pedestrian bicycle" speed="5.56" length="7.43" width="2.00" shape="326.47,695.34 327.04,697.31 326.82,698.96 325.81,700.28 324.02,701.28"/>
    </edge>
    <edge id=":10203661727_5" function="internal">
        <lane id=":10203661727_5_0" index="0" allow="pedestrian bicycle" speed="2.89" length="2.92" width="2.00" shape="326.47,695.34 326.32,696.23 325.97,696.66 325.41,696.64 324.65,696.16"/>
    </edge>
    <edge id=":10203661727_6" function="internal">
        <lane id=":10203661727_6_0" index="0" allow="pedestrian bicycle" speed="4.37" length="4.06" width="2.00" shape="323.31,699.41 324.29,698.86 324.84,698.14 324.96,697.24 324.65,696.16"/>
    </edge>
    <edge id=":10203661727_7" function="internal">
        <lane id=":10203661727_7_0" index="0" allow="pedestrian bicycle" speed="5.56" length="7.28" width="2.00" shape="323.31,699.41 325.28,698.94 326.95,699.17 328.31,700.08 329.37,701.69"/>
    </edge>
    <edge id=":10203661727_8" function="internal">
        <lane id=":10203661727_8_0" index="0" allow="pedestrian bicycle" speed="2.89" length="2.92" width="2.00" shape="323.31,699.41 324.19,699.61 324.60,699.99 324.54,700.54 324.02,701.28"/>
    </edge>
    <edge id=":10215367524_0" function="internal">
        <lane id=":10215367524_0_0" index="0" allow="pedestrian delivery bicycle" speed="5.56" length="6.00" shape="533.33,622.36 530.76,616.94"/>
    </edge>
    <edge id=":10215367524_1" function="internal">
        <lane id=":10215367524_1_0" index="0" allow="pedestrian delivery bicycle" speed="3.65" length="1.44" shape="533.33,622.36 533.54,620.93"/>
    </edge>
    <edge id=":10215367524_4" function="internal">
        <lane id=":10215367524_4_0" index="0" allow="pedestrian delivery bicycle" speed="3.65" length="3.23" shape="533.54,620.93 534.09,620.23 534.98,620.25 536.22,620.99"/>
    </edge>
    <edge id=":10215367524_2" function="internal">
        <lane id=":10215367524_2_0" index="0" allow="pedestrian delivery bicycle" speed="5.56" length="6.00" shape="533.65,615.56 536.22,620.99"/>
    </edge>
    <edge id=":10215367524_3" function="internal">
        <lane id=":10215367524_3_0" index="0" allow="pedestrian delivery bicycle" speed="3.65" length="1.44" shape="533.65,615.56 533.44,616.99"/>
    </edge>
    <edge id=":10215367524_5" function="internal">
        <lane id=":10215367524_5_0" index="0" allow="pedestrian delivery bicycle" speed="3.65" length="3.23" shape="533.44,616.99 532.89,617.69 532.00,617.68 530.76,616.94"/>
    </edge>
    <edge id=":10671335864_0" function="internal">
        <lane id=":10671335864_0_0" index="0" allow="pedestrian bicycle" speed="5.56" length="6.96" width="2.00" shape="294.23,617.36 292.08,610.74"/>
    </edge>
    <edge id=":10671335864_1" function="internal">
        <lane id=":10671335864_1_0" index="0" allow="pedestrian bicycle" speed="5.56" length="7.28" width="2.00" shape="294.23,617.36 293.94,615.49 294.34,613.90 295.42,612.58 297.18,611.54"/>
    </edge>
    <edge id=":10671335864_2" function="internal">
        <lane id=":10671335864_2_0" index="0" allow="pedestrian bicycle" speed="2.89" length="2.92" width="2.00" shape="294.23,617.36 294.48,616.50 294.89,616.11 295.44,616.20 296.14,616.76"/>
    </edge>
    <edge id=":10671335864_3" function="internal">
        <lane id=":10671335864_3_0" index="0" allow="pedestrian bicycle" speed="4.73" length="4.30" width="2.00" shape="297.97,613.37 296.90,614.00 296.24,614.77 295.98,615.69 296.14,616.76"/>
    </edge>
    <edge id=":10671335864_4" function="internal">
        <lane id=":10671335864_4_0" index="0" allow="pedestrian bicycle" speed="5.56" length="7.50" width="2.00" shape="297.97,613.37 295.96,613.92 294.31,613.66 293.02,612.60 292.08,610.74"/>
    </edge>
    <edge id=":10671335864_5" function="internal">
        <lane id=":10671335864_5_0" index="0" allow="pedestrian bicycle" speed="2.89" length="2.92" width="2.00" shape="297.97,613.37 297.08,613.21 296.66,612.85 296.69,612.29 297.18,611.54"/>
    </edge>
    <edge id=":10671335864_6" function="internal">
        <lane id=":10671335864_6_0" index="0" allow="pedestrian bicycle" speed="4.34" length="4.08" width="2.00" shape="293.98,610.10 294.49,611.12 295.19,611.69 296.09,611.83 297.18,611.54"/>
    </edge>
    <edge id=":10671335864_7" function="internal">
        <lane id=":10671335864_7_0" index="0" allow="pedestrian bicycle" speed="5.56" length="7.00" width="2.00" shape="293.98,610.10 296.14,616.76"/>
    </edge>
    <edge id=":10671335864_8" function="internal">
        <lane id=":10671335864_8_0" index="0" allow="pedestrian bicycle" speed="2.89" length="2.92" width="2.00" shape="293.98,610.10 293.74,610.97 293.35,611.37 292.80,611.29 292.08,610.74"/>
    </edge>
    <edge id=":10671335865_0" function="internal">
        <lane id=":10671335865_0_0" index="0" allow="pedestrian bicycle" speed="5.56" length="5.19" width="2.00" shape="332.64,598.31 327.91,600.45"/>
    </edge>
    <edge id=":10671335865_1" function="internal">
        <lane id=":10671335865_1_0" index="0" allow="pedestrian bicycle" speed="2.89" length="2.42" width="2.00" shape="332.64,598.31 331.75,598.18 331.31,597.83 331.32,597.27 331.53,596.93"/>
    </edge>
    <edge id=":10671335865_4" function="internal">