<?xml version="1.0" encoding="UTF-8"?>

<!-- generated on Tue 05 Apr 2022 05:49:35 PM CEST by Eclipse SUMO netedit Version 1.8.0
<configuration xmlns:xsi="http://www.w3.org/2001/XMLSchema-instance" xsi:noNamespaceSchemaLocation="http://sumo.dlr.de/xsd/netconvertConfiguration.xsd">

    <input>
        <sumo-net-file value="lust.net.xml"/>
    </input>

    <output>
        <output-file value="lust.net.xml"/>
        <output.street-names value="true"/>
    </output>

    <processing>
        <geometry.min-radius.fix.railways value="false"/>
        <geometry.max-grade.fix value="false"/>
        <offset.disable-normalization value="true"/>
        <lefthand value="false"/>
    </processing>

    <junctions>
        <no-turnarounds value="true"/>
        <junctions.corner-detail value="0"/>
        <junctions.limit-turn-speed value="-1"/>
        <rectangular-lane-cut value="false"/>
    </junctions>

    <pedestrian>
        <walkingareas value="false"/>
    </pedestrian>

    <netedit>
        <additional-files value="/home/brummer/veins3d/veins/examples/newLust/busstops.add.xml"/>
    </netedit>

    <report>
        <aggregate-warnings value="5"/>
    </report>

</configuration>
-->

<additional xmlns:xsi="http://www.w3.org/2001/XMLSchema-instance" xsi:noNamespaceSchemaLocation="http://sumo.dlr.de/xsd/additional_file.xsd">
    <busStop id="10" lane="-32940#0_0" startPos="202.44" endPos="212.44"/>
    <busStop id="102" lane="-31912#1_0" startPos="0.00" endPos="150.88"/>
    <busStop id="103" lane="--31912#1_0" startPos="29.25" endPos="39.25"/>
    <busStop id="104" lane="--31768#2_0" startPos="116.63" endPos="126.63"/>
    <busStop id="105" lane="-31768#2_0" startPos="142.91" endPos="152.91"/>
    <busStop id="106" lane="--31228_0" startPos="46.53" endPos="56.53"/>
    <busStop id="107" lane="-31228_0" startPos="98.87" endPos="108.87"/>
    <busStop id="11" lane="--32940#0_0" startPos="102.99" endPos="112.99"/>
    <busStop id="110" lane="--30358#2_0" startPos="119.06" endPos="129.06"/>
    <busStop id="111" lane="-30358#2_0" startPos="56.46" endPos="66.46"/>
    <busStop id="112" lane="--32660_0" startPos="96.64" endPos="106.64"/>
    <busStop id="113" lane="-32660_0" startPos="74.36" endPos="84.36"/>
    <busStop id="116" lane="--32638#0_0" startPos="81.48" endPos="91.48"/>
    <busStop id="117" lane="-32638#0_0" startPos="65.55" endPos="75.55"/>
    <busStop id="118" lane="--30608#1_0" startPos="689.06" endPos="699.06"/>
    <busStop id="119" lane="-30608#1_0" startPos="56.38" endPos="66.38"/>
    <busStop id="12" lane="-31410_0" startPos="0.00" endPos="173.32"/>
    <busStop id="120" lane="--31152#0_0" startPos="259.77" endPos="269.77"/>
    <busStop id="121" lane="-31152#0_0" startPos="82.06" endPos="92.06"/>
    <busStop id="122" lane="--31152#1_0" startPos="80.17" endPos="90.17"/>
    <busStop id="123" lane="-31152#1_0" startPos="38.05" endPos="48.05"/>
    <busStop id="124" lane="--32652#9_0" startPos="41.20" endPos="51.20"/>
    <busStop id="125" lane="-32652#9_0" startPos="89.32" endPos="99.32"/>
    <busStop id="126" lane="--32648_0" startPos="81.60" endPos="91.60"/>
    <busStop id="127" lane="-32648_0" startPos="103.41" endPos="113.41"/>
    <busStop id="128" lane="-32340#3_0" startPos="36.35" endPos="46.35"/>
    <busStop id="129" lane="--32340#3_0" startPos="30.72" endPos="40.72"/>
    <busStop id="13" lane="--31410_0" startPos="0.00" endPos="173.32"/>
    <busStop id="130" lane="--31992#5_0" startPos="25.49" endPos="35.49"/>
    <busStop id="131" lane="-31992#5_0" startPos="92.76" endPos="102.76"/>
    <busStop id="132" lane="-32574_0" startPos="148.30" endPos="157.26"/>
    <busStop id="133" lane="--32278#6_0" startPos="658.34" endPos="668.34"/>
    <busStop id="134" lane="-32278#6_0" startPos="337.38" endPos="347.38"/>
    <busStop id="135" lane="--30528#13_0" startPos="30.15" endPos="40.15"/>
    <busStop id="136" lane="-30528#13_0" startPos="29.07" endPos="39.07"/>
    <busStop id="137" lane="--31066#3_0" startPos="36.83" endPos="46.83"/>
    <busStop id="138" lane="-31066#3_0" startPos="48.15" endPos="58.15"/>
    <busStop id="139" lane="-30244#4_0" startPos="49.23" endPos="59.23"/>
    <busStop id="140" lane="--30244#4_0" startPos="96.39" endPos="106.39"/>
    <busStop id="141" lane="--31258#0_0" startPos="122.44" endPos="132.44"/>
    <busStop id="142" lane="-31258#0_0" startPos="211.76" endPos="221.76"/>
    <busStop id="145" lane="-32432#2_0" startPos="27.27" endPos="37.27"/>
    <busStop id="146" lane="--32432#2_0" startPos="372.44" endPos="382.44"/>
    <busStop id="147" lane="-32964#8_0" startPos="53.05" endPos="63.05"/>
    <busStop id="148" lane="--32964#8_0" startPos="50.48" endPos="60.48"/>
    <busStop id="149" lane="-32964#3_0" startPos="43.64" endPos="53.64"/>
    <busStop id="150" lane="--32964#3_0" startPos="109.92" endPos="119.92"/>
    <busStop id="151" lane="-30528#4_0" startPos="50.35" endPos="60.35"/>
    <busStop id="152" lane="--30528#4_0" startPos="129.73" endPos="139.73"/>
    <busStop id="153" lane="-30404#0_0" startPos="39.48" endPos="49.48"/>
    <busStop id="154" lane="--30404#0_0" startPos="40.13" endPos="50.13"/>
    <busStop id="155" lane="--31134#1_0" startPos="549.11" endPos="559.11"/>
    <busStop id="156" lane="-31134#1_0" startPos="54.80" endPos="64.80"/>
    <busStop id="159" lane="-30856#17_0" startPos="97.62" endPos="107.62"/>
    <busStop id="160" lane="--30856#17_0" startPos="247.35" endPos="257.35"/>
    <busStop id="161" lane="--31668#3_0" startPos="391.18" endPos="401.18"/>
    <busStop id="162" lane="-31668#3_0" startPos="399.66" endPos="409.66"/>
    <busStop id="163" lane="-32730#5_0" startPos="211.70" endPos="221.70"/>
    <busStop id="164" lane="--32730#5_0" startPos="72.72" endPos="82.72"/>
    <busStop id="165" lane="--31834#1_0" startPos="101.50" endPos="111.50"/>
    <busStop id="166" lane="-31834#1_0" startPos="140.29" endPos="150.29"/>
    <busStop id="167" lane="-31940#6_0" startPos="179.71" endPos="189.71"/>
    <busStop id="168" lane="--31940#6_0" startPos="486.86" endPos="496.86"/>
    <busStop id="169" lane="--32064#1_0" startPos="79.49" endPos="89.49"/>
    <busStop id="170" lane="-32064#1_0" startPos="103.30" endPos="113.30"/>
    <busStop id="171" lane="--30444#1_0" startPos="31.79" endPos="41.79"/>
    <busStop id="172" lane="-30444#1_0" startPos="32.19" endPos="42.19"/>
    <busStop id="173" lane="--31022#0_0" startPos="42.28" endPos="52.28"/>
    <busStop id="174" lane="-31022#0_0" startPos="52.95" endPos="62.95"/>
    <busStop id="175" lane="-30950_0" startPos="0.00" endPos="143.47"/>
    <busStop id="176" lane="--30950_0" startPos="160.61" endPos="170.61"/>
    <busStop id="179" lane="--30872#6_0" startPos="42.81" endPos="52.81"/>
    <busStop id="180" lane="-30872#6_0" startPos="38.91" endPos="48.91"/>
    <busStop id="181" lane="--32084#1_0" startPos="102.50" endPos="112.50"/>
    <busStop id="182" lane="-32084#1_0" startPos="54.11" endPos="64.11"/>
    <busStop id="184" lane="-31070#3_0" startPos="40.60" endPos="50.60"/>
    <busStop id="185" lane="--31070#3_0" startPos="321.51" endPos="331.51"/>
    <busStop id="186" lane="-32410#1_0" startPos="30.44" endPos="40.44"/>
    <busStop id="187" lane="--32410#1_0" startPos="25.61" endPos="35.61"/>
    <busStop id="188" lane="-32482#5_0" startPos="207.86" endPos="217.86"/>
    <busStop id="189" lane="--32482#5_0" startPos="48.10" endPos="58.10"/>
    <busStop id="19" lane="-30856#18_0" startPos="82.45" endPos="92.45"/>
    <busStop id="190" lane="-32432#7_0" startPos="43.16" endPos="53.16"/>
    <busStop id="191" lane="--32432#7_0" startPos="305.22" endPos="315.22"/>
    <busStop id="192" lane="--32674#4_0" startPos="900.88" endPos="910.88"/>
    <busStop id="193" lane="-32674#4_0" startPos="685.44" endPos="695.44"/>
    <busStop id="195" lane="--31496#5_0" startPos="175.23" endPos="185.23"/>
    <busStop id="196" lane="-31496#5_0" startPos="283.22" endPos="293.22"/>
    <busStop id="197" lane="--30856#1_0" startPos="35.87" endPos="45.87"/>
    <busStop id="198" lane="-30856#1_0" startPos="0.00" endPos="260.43"/>
    <busStop id="199" lane="-31594#0_0" startPos="157.19" endPos="167.19"/>
    <busStop id="2" lane="-30856#2_0" startPos="87.44" endPos="97.44"/>
    <busStop id="20" lane="--30856#18_0" startPos="288.97" endPos="298.97"/>
    <busStop id="200" lane="--31594#0_0" startPos="50.66" endPos="60.66"/>
    <busStop id="201" lane="-30534#3_0" startPos="0.00" endPos="290.47"/>
    <busStop id="202" lane="--30534#3_0" startPos="31.68" endPos="41.68"/>
    <busStop id="205" lane="--32652#8_0" startPos="54.25" endPos="64.25"/>
    <busStop id="206" lane="-32652#8_0" startPos="51.88" endPos="61.88"/>
    <busStop id="207" lane="-30622#1_0" startPos="38.91" endPos="48.91"/>
    <busStop id="208" lane="--30622#1_0" startPos="45.41" endPos="55.41"/>
    <busStop id="21" lane="--31496#6_0" startPos="75.77" endPos="85.77"/>
    <busStop id="211" lane="--32674#4_0" startPos="1353.47" endPos="1363.47"/>
    <busStop id="212" lane="-32674#4_0" startPos="232.85" endPos="242.85"/>
    <busStop id="215" lane="-30892#21_0" startPos="43.46" endPos="53.46"/>
    <busStop id="216" lane="--30892#21_0" startPos="111.91" endPos="121.91"/>
    <busStop id="217" lane="--31648#1_0" startPos="126.30" endPos="136.30"/>
    <busStop id="218" lane="-31648#1_0" startPos="30.71" endPos="40.71"/>
    <busStop id="219" lane="--32730#0_0" startPos="259.11" endPos="269.11"/>
    <busStop id="22" lane="-31496#6_0" startPos="80.73" endPos="90.73"/>
    <busStop id="220" lane="-32730#0_0" startPos="358.95" endPos="368.95"/>
    <busStop id="221" lane="--30592#0_0" startPos="29.13" endPos="39.13"/>
    <busStop id="222" lane="-30592#0_0" startPos="28.09" endPos="38.09"/>
    <busStop id="223" lane="-32532_0" startPos="47.18" endPos="57.18"/>
    <busStop id="224" lane="--32322_0" startPos="80.50" endPos="90.50"/>
    <busStop id="225" lane="-30850#9_0" startPos="147.76" endPos="157.76"/>
    <busStop id="226" lane="-30380_0" startPos="230.67" endPos="240.67"/>
    <busStop id="227" lane="--30648#15_0" startPos="329.54" endPos="339.54"/>
    <busStop id="228" lane="-30648#15_0" startPos="366.48" endPos="376.48"/>
    <busStop id="229" lane="--31066#7_0" startPos="267.68" endPos="277.68"/>
    <busStop id="23" lane="--32740#1_0" startPos="37.55" endPos="47.55"/>
    <busStop id="230" lane="-31066#7_0" startPos="334.00" endPos="344.00"/>
    <busStop id="231" lane="--31562#0_0" startPos="66.03" endPos="76.03"/>
    <busStop id="232" lane="-31562#0_0" startPos="160.57" endPos="170.57"/>
    <busStop id="233" lane="--31668#6_0" startPos="148.08" endPos="158.08"/>
    <busStop id="234" lane="-31668#6_0" startPos="78.96" endPos="88.96"/>
    <busStop id="235" lane="--30842#4_0" startPos="23.14" endPos="33.14"/>
    <busStop id="236" lane="-30842#4_0" startPos="25.61" endPos="35.61"/>
    <busStop id="239" lane="--32924#0_0" startPos="53.63" endPos="63.63"/>
    <busStop id="24" lane="-32740#1_0" startPos="31.77" endPos="41.77"/>
    <busStop id="240" lane="-32924#0_0" startPos="306.60" endPos="316.60"/>
    <busStop id="241" lane="-30856#7_0" startPos="52.69" endPos="62.69"/>
    <busStop id="242" lane="--30856#7_0" startPos="47.37" endPos="57.37"/>
    <busStop id="243" lane="-31966#12_0" startPos="54.40" endPos="64.40"/>
    <busStop id="244" lane="--31966#12_0" startPos="34.23" endPos="44.23"/>
    <busStop id="245" lane="--32638#5_0" startPos="31.05" endPos="41.05"/>
    <busStop id="246" lane="-32638#5_0" startPos="33.08" endPos="43.08"/>
    <busStop id="247" lane="-30628#2_0" startPos="44.29" endPos="54.29"/>
    <busStop id="248" lane="-30892#25_0" startPos="235.90" endPos="245.90"/>
    <busStop id="249" lane="--30892#25_0" startPos="95.85" endPos="105.85"/>
    <busStop id="252" lane="--31496#1_0" startPos="370.25" endPos="380.25"/>
    <busStop id="253" lane="-31496#1_0" startPos="106.25" endPos="116.25"/>
    <busStop id="254" lane="--30856#1_0" startPos="0.00" endPos="260.43"/>
    <busStop id="255" lane="-30856#1_0" startPos="121.07" endPos="131.07"/>
    <busStop id="256" lane="-31942#1_0" startPos="66.47" endPos="76.47"/>
    <busStop id="257" lane="--31942#1_0" startPos="215.41" endPos="225.41"/>
    <busStop id="258" lane="-30528#9_0" startPos="37.91" endPos="47.91"/>
    <busStop id="259" lane="--30528#9_0" startPos="37.23" endPos="47.23"/>
    <busStop id="260" lane="-31070#7_0" startPos="117.41" endPos="127.41"/>
    <busStop id="261" lane="--31070#7_0" startPos="80.49" endPos="90.49"/>
    <busStop id="262" lane="--31330_0" startPos="51.05" endPos="61.05"/>
    <busStop id="263" lane="-31330_0" startPos="177.37" endPos="187.37"/>
    <busStop id="264" lane="--30358#0_0" startPos="55.91" endPos="65.91"/>
    <busStop id="265" lane="-30358#0_0" startPos="60.80" endPos="70.80"/>
    <busStop id="266" lane="-31100#0_0" startPos="126.54" endPos="136.54"/>
    <busStop id="269" lane="--31768#7_0" startPos="298.31" endPos="308.31"/>
    <busStop id="27" lane="-31988_0" startPos="723.32" endPos="733.32"/>
    <busStop id="270" lane="-31768#7_0" startPos="97.90" endPos="107.90"/>
    <busStop id="271" lane="--32664#0_0" startPos="41.97" endPos="51.97"/>
    <busStop id="272" lane="-32664#0_0" startPos="40.63" endPos="50.63"/>
    <busStop id="277" lane="--32278#5_0" startPos="151.04" endPos="161.04"/>
    <busStop id="278" lane="-32278#5_0" startPos="698.38" endPos="708.38"/>
    <busStop id="279" lane="--31496#5_0" startPos="402.54" endPos="412.54"/>
    <busStop id="28" lane="--31988_0" startPos="38.19" endPos="48.19"/>
    <busStop id="280" lane="-31496#5_0" startPos="55.91" endPos="65.91"/>
    <busStop id="281" lane="-32968#2_0" startPos="79.68" endPos="89.68"/>
    <busStop id="282" lane="--32968#2_0" startPos="86.26" endPos="96.26"/>
    <busStop id="283" lane="-30534#3_0" startPos="134.92" endPos="144.92"/>
    <busStop id="284" lane="--30534#3_0" startPos="269.30" endPos="279.30"/>
    <busStop id="285" lane="-30730#3_0" startPos="167.79" endPos="177.79"/>
    <busStop id="286" lane="--30730#3_0" startPos="152.64" endPos="162.64"/>
    <busStop id="287" lane="--32750#7_0" startPos="40.94" endPos="50.94"/>
    <busStop id="288" lane="-32750#7_0" startPos="82.94" endPos="92.94"/>
    <busStop id="289" lane="-32776#4_0" startPos="36.30" endPos="46.30"/>
    <busStop id="29" lane="-32966#0_0" startPos="51.55" endPos="61.55"/>
    <busStop id="290" lane="--32776#4_0" startPos="45.65" endPos="55.65"/>
    <busStop id="291" lane="--30648#5_0" startPos="110.34" endPos="120.34"/>
    <busStop id="292" lane="-30648#5_0" startPos="47.68" endPos="57.68"/>
    <busStop id="293" lane="--31244#1_0" startPos="121.01" endPos="131.01"/>
    <busStop id="294" lane="-31244#1_0" startPos="117.11" endPos="127.11"/>
    <busStop id="295" lane="--31818#22_0" startPos="51.78" endPos="61.78"/>
    <busStop id="296" lane="-31818#22_0" startPos="81.36" endPos="91.36"/>
    <busStop id="297" lane="-31602#1_0" startPos="39.85" endPos="49.85"/>
    <busStop id="298" lane="--31602#1_0" startPos="32.12" endPos="42.12"/>
    <busStop id="299" lane="-30856#10_0" startPos="192.03" endPos="202.03"/>
    <busStop id="3" lane="--30856#2_0" startPos="535.02" endPos="545.02"/>
    <busStop id="30" lane="--32966#0_0" startPos="47.12" endPos="57.12"/>
    <busStop id="300" lane="--30856#10_0" startPos="66.44" endPos="76.44"/>
    <busStop id="303" lane="--30432#4_0" startPos="36.69" endPos="46.69"/>
    <busStop id="304" lane="-30432#4_0" startPos="35.26" endPos="45.26"/>
    <busStop id="305" lane="--31196#1_0" startPos="18.55" endPos="28.55"/>
    <busStop id="306" lane="-31196#1_0" startPos="17.78" endPos="27.78"/>
    <busStop id="307" lane="--30860#6_0" startPos="28.32" endPos="38.32"/>
    <busStop id="308" lane="-30860#6_0" startPos="39.20" endPos="49.20"/>
    <busStop id="309" lane="-31462#3_0" startPos="34.69" endPos="44.69"/>
    <busStop id="31" lane="--32652#3_0" startPos="29.07" endPos="39.07"/>
    <busStop id="310" lane="--31462#3_0" startPos="193.22" endPos="203.22"/>
    <busStop id="311" lane="--32278#5_0" startPos="797.18" endPos="807.18"/>
    <busStop id="312" lane="-32278#5_0" startPos="52.24" endPos="62.24"/>
    <busStop id="313" lane="--30528#36_0" startPos="20.88" endPos="30.88"/>
    <busStop id="314" lane="-30528#36_0" startPos="23.55" endPos="33.55"/>
    <busStop id="315" lane="--30646#4_0" startPos="41.51" endPos="51.51"/>
    <busStop id="316" lane="-30646#4_0" startPos="60.81" endPos="70.81"/>
    <busStop id="317" lane="--32646#0_0" startPos="53.79" endPos="63.79"/>
    <busStop id="318" lane="-32646#0_0" startPos="42.44" endPos="52.44"/>
    <busStop id="319" lane="--32750#4_0" startPos="30.27" endPos="39.11"/>
    <busStop id="32" lane="-32652#3_0" startPos="29.65" endPos="39.65"/>
    <busStop id="320" lane="-32750#4_0" startPos="27.68" endPos="37.68"/>
    <busStop id="321" lane="-31952#16_0" startPos="322.66" endPos="332.66"/>
    <busStop id="322" lane="--31952#16_0" startPos="284.11" endPos="294.11"/>
    <busStop id="323" lane="--32730#0_0" startPos="562.78" endPos="572.78"/>
    <busStop id="324" lane="-32730#0_0" startPos="55.29" endPos="65.29"/>
    <busStop id="325" lane="-30314#0_0" startPos="172.99" endPos="182.99"/>
    <busStop id="326" lane="--30314#0_0" startPos="79.33" endPos="89.33"/>
    <busStop id="327" lane="-31492#0_0" startPos="78.02" endPos="88.02"/>
    <busStop id="328" lane="--31492#0_0" startPos="302.19" endPos="312.19"/>
    <busStop id="329" lane="--31952#5_0" startPos="117.51" endPos="127.51"/>
    <busStop id="33" lane="--30850#5_0" startPos="18.45" endPos="28.45"/>
    <busStop id="330" lane="-31952#5_0" startPos="210.87" endPos="220.87"/>
    <busStop id="331" lane="--32750#3_0" startPos="115.83" endPos="125.83"/>
    <busStop id="332" lane="-32750#3_0" startPos="37.10" endPos="47.10"/>
    <busStop id="334" lane="--32674#7_0" startPos="30.48" endPos="40.48"/>
    <busStop id="335" lane="-32674#7_0" startPos="0.00" endPos="285.98"/>
    <busStop id="336" lane="--32924#14_0" startPos="167.89" endPos="177.89"/>
    <busStop id="337" lane="-32924#14_0" startPos="44.43" endPos="54.43"/>
    <busStop id="338" lane="--31708#1_0" startPos="361.74" endPos="371.74"/>
    <busStop id="339" lane="-31708#1_0" startPos="35.44" endPos="45.44"/>
    <busStop id="34" lane="-30850#5_0" startPos="21.05" endPos="31.05"/>
    <busStop id="340" lane="-32432#0_0" startPos="392.37" endPos="402.37"/>
    <busStop id="341" lane="--32432#0_0" startPos="196.64" endPos="206.64"/>
    <busStop id="342" lane="-31818#16_0" startPos="26.97" endPos="36.97"/>
    <busStop id="343" lane="--31818#16_0" startPos="29.71" endPos="39.71"/>
    <busStop id="344" lane="-31340#2_0" startPos="20.79" endPos="30.79"/>
    <busStop id="345" lane="--31340#2_0" startPos="21.35" endPos="31.35"/>
    <busStop id="348" lane="--31966#1_0" startPos="30.93" endPos="40.93"/>
    <busStop id="349" lane="-31966#1_0" startPos="184.14" endPos="194.14"/>
    <busStop id="35" lane="-32432#2_0" startPos="345.73" endPos="355.73"/>
    <busStop id="352" lane="--30766#9_0" startPos="100.63" endPos="110.63"/>
    <busStop id="353" lane="-30766#9_0" startPos="121.22" endPos="131.22"/>
    <busStop id="354" lane="--30856#9_0" startPos="132.39" endPos="142.39"/>
    <busStop id="355" lane="-30856#9_0" startPos="152.60" endPos="162.60"/>
    <busStop id="356" lane="-32364#4_0" startPos="29.23" endPos="39.23"/>
    <busStop id="357" lane="--32364#4_0" startPos="57.42" endPos="67.42"/>
    <busStop id="358" lane="--31496#2_0" startPos="214.55" endPos="224.55"/>
    <busStop id="359" lane="-31496#2_0" startPos="74.51" endPos="84.51"/>
    <busStop id="36" lane="--32432#2_0" startPos="53.98" endPos="63.98"/>
    <busStop id="364" lane="-31364#6_0" startPos="22.69" endPos="32.69"/>
    <busStop id="365" lane="--31364#6_0" startPos="21.93" endPos="31.93"/>
    <busStop id="370" lane="-31272#3_0" startPos="184.15" endPos="194.15"/>
    <busStop id="371" lane="--31272#3_0" startPos="43.70" endPos="53.70"/>
    <busStop id="372" lane="--30432#7_0" startPos="144.59" endPos="154.59"/>
    <busStop id="373" lane="-30432#7_0" startPos="99.89" endPos="109.89"/>
    <busStop id="374" lane="--31466#2_0" startPos="115.79" endPos="125.79"/>
    <busStop id="375" lane="-31466#2_0" startPos="1067.45" endPos="1077.45"/>
    <busStop id="376" lane="-30358#16_0" startPos="99.82" endPos="109.82"/>
    <busStop id="377" lane="--30358#16_0" startPos="59.44" endPos="69.44"/>
    <busStop id="380" lane="-31768#1_0" startPos="104.39" endPos="114.39"/>
    <busStop id="381" lane="--31768#1_0" startPos="188.46" endPos="198.46"/>
    <busStop id="382" lane="--30844#0_0" startPos="51.45" endPos="61.45"/>
    <busStop id="383" lane="-30844#0_0" startPos="772.78" endPos="782.78"/>
    <busStop id="384" lane="--31496#11_0" startPos="62.78" endPos="72.78"/>
    <busStop id="385" lane="-31496#11_0" startPos="81.35" endPos="91.35"/>
    <busStop id="386" lane="--31952#9_0" startPos="109.53" endPos="119.53"/>
    <busStop id="387" lane="-31952#9_0" startPos="56.00" endPos="66.00"/>
    <busStop id="388" lane="--32230#7_0" startPos="69.79" endPos="79.79"/>
    <busStop id="389" lane="-32230#7_0" startPos="76.35" endPos="86.35"/>
    <busStop id="392" lane="-31564#1_0" startPos="56.02" endPos="66.02"/>
    <busStop id="393" lane="--31564#1_0" startPos="131.21" endPos="141.21"/>
    <busStop id="396" lane="-31966#10_0" startPos="35.49" endPos="45.49"/>
    <busStop id="397" lane="--31966#10_0" startPos="269.91" endPos="279.91"/>
    <busStop id="398" lane="--31992#1_0" startPos="52.87" endPos="62.87"/>
    <busStop id="399" lane="-31992#1_0" startPos="58.45" endPos="68.45"/>
    <busStop id="4" lane="-31952#13_0" startPos="49.17" endPos="59.17"/>
    <busStop id="400" lane="--30358#4_0" startPos="23.36" endPos="33.36"/>
    <busStop id="401" lane="-30358#4_0" startPos="39.63" endPos="49.63"/>
    <busStop id="402" lane="-31818#14_0" startPos="45.93" endPos="55.93"/>
    <busStop id="403" lane="--31818#14_0" startPos="144.64" endPos="154.64"/>
    <busStop id="404" lane="-30244#2_0" startPos="28.04" endPos="38.04"/>
    <busStop id="405" lane="--30244#2_0" startPos="100.05" endPos="110.05"/>
    <busStop id="406" lane="-32042#0_0" startPos="195.36" endPos="205.36"/>
    <busStop id="407" lane="--32042#0_0" startPos="52.73" endPos="62.73"/>
    <busStop id="408" lane="-32964#11_0" startPos="15.70" endPos="25.70"/>
    <busStop id="409" lane="--32964#11_0" startPos="21.95" endPos="31.95"/>
    <busStop id="410" lane="--32674#3_0" startPos="305.43" endPos="315.43"/>
    <busStop id="411" lane="-32674#3_0" startPos="285.86" endPos="295.86"/>
    <busStop id="412" lane="-31364#5_0" startPos="151.44" endPos="161.44"/>
    <busStop id="413" lane="--31364#5_0" startPos="229.12" endPos="239.12"/>
    <busStop id="414" lane="-30892#24_0" startPos="82.02" endPos="92.02"/>
    <busStop id="415" lane="--30892#24_0" startPos="63.70" endPos="73.70"/>
    <busStop id="416" lane="-32750#12_0" startPos="61.79" endPos="71.79"/>
    <busStop id="417" lane="--32750#12_0" startPos="56.32" endPos="66.32"/>
    <busStop id="418" lane="-32364#1_0" startPos="32.08" endPos="42.08"/>
    <busStop id="419" lane="--32364#1_0" startPos="22.67" endPos="32.67"/>
    <busStop id="42" lane="--32730#2_0" startPos="90.90" endPos="100.90"/>
    <busStop id="422" lane="--32674#2_0" startPos="429.81" endPos="439.81"/>
    <busStop id="423" lane="-32674#2_0" startPos="68.44" endPos="78.44"/>
    <busStop id="424" lane="-31952#16_0" startPos="523.41" endPos="533.41"/>
    <busStop id="425" lane="--31952#16_0" startPos="83.36" endPos="93.36"/>
    <busStop id="426" lane="--31668#4_0" startPos="285.01" endPos="295.01"/>
    <busStop id="427" lane="-31668#4_0" startPos="39.22" endPos="49.22"/>
    <busStop id="428" lane="--31452#0_0" startPos="330.15" endPos="340.15"/>
    <busStop id="429" lane="-31452#0_0" startPos="1475.04" endPos="1485.04"/>
    <busStop id="43" lane="-32730#2_0" startPos="65.82" endPos="75.82"/>
    <busStop id="430" lane="-30468#1_0" startPos="312.31" endPos="322.31"/>
    <busStop id="431" lane="--30468#1_0" startPos="50.79" endPos="60.79"/>
    <busStop id="432" lane="--31668#2_0" startPos="202.22" endPos="212.22"/>
    <busStop id="433" lane="-31668#2_0" startPos="61.37" endPos="71.37"/>
    <busStop id="434" lane="--31466#2_0" startPos="581.68" endPos="591.68"/>
    <busStop id="435" lane="-31466#2_0" startPos="601.57" endPos="611.57"/>
    <busStop id="436" lane="--31668#3_0" startPos="647.03" endPos="657.03"/>
    <busStop id="437" lane="-31668#3_0" startPos="143.81" endPos="153.81"/>
    <busStop id="438" lane="-31364#11_0" startPos="120.36" endPos="130.36"/>
    <busStop id="439" lane="--31364#11_0" startPos="110.58" endPos="120.58"/>
    <busStop id="44" lane="-32080#2_0" startPos="292.88" endPos="302.88"/>
    <busStop id="440" lane="--31966#7_0" startPos="37.13" endPos="47.13"/>
    <busStop id="441" lane="-31966#7_0" startPos="53.86" endPos="63.86"/>
    <busStop id="444" lane="--30850#0_0" startPos="58.55" endPos="68.55"/>
    <busStop id="445" lane="-30850#0_0" startPos="56.95" endPos="66.95"/>
    <busStop id="446" lane="-32432#0_0" startPos="125.06" endPos="135.06"/>
    <busStop id="447" lane="--32432#0_0" startPos="463.94" endPos="473.94"/>
    <busStop id="448" lane="-31462#0_0" startPos="213.43" endPos="223.43"/>
    <busStop id="449" lane="--31462#0_0" startPos="101.81" endPos="111.81"/>
    <busStop id="45" lane="--32080#2_0" startPos="61.88" endPos="71.88"/>
    <busStop id="450" lane="-30348#3_0" startPos="29.02" endPos="39.02"/>
    <busStop id="451" lane="--30348#3_0" startPos="24.07" endPos="34.07"/>
    <busStop id="452" lane="--31966#3_0" startPos="91.25" endPos="101.25"/>
    <busStop id="453" lane="-31966#3_0" startPos="211.38" endPos="221.38"/>
    <busStop id="454" lane="-31070#4_0" startPos="65.16" endPos="75.16"/>
    <busStop id="455" lane="--31070#4_0" startPos="227.97" endPos="237.97"/>
    <busStop id="456" lane="-31272#1_0" startPos="55.25" endPos="65.25"/>
    <busStop id="457" lane="--31272#1_0" startPos="53.62" endPos="63.62"/>
    <busStop id="458" lane="-31868#1_0" startPos="58.47" endPos="68.47"/>
    <busStop id="459" lane="--31868#1_0" startPos="63.01" endPos="73.01"/>
    <busStop id="46" lane="-30856#5_0" startPos="224.56" endPos="234.56"/>
    <busStop id="460" lane="-30468#1_0" startPos="155.47" endPos="165.47"/>
    <busStop id="461" lane="--30468#1_0" startPos="207.63" endPos="217.63"/>
    <busStop id="462" lane="--30856#1_0" startPos="0.00" endPos="260.43"/>
    <busStop id="463" lane="-30856#1_0" startPos="40.29" endPos="50.29"/>
    <busStop id="464" lane="--31952#2_0" startPos="29.21" endPos="39.21"/>
    <busStop id="465" lane="-31952#2_0" startPos="11.77" endPos="21.77"/>
    <busStop id="466" lane="-31272#4_0" startPos="127.76" endPos="137.76"/>
    <busStop id="467" lane="--31272#4_0" startPos="51.22" endPos="61.22"/>
    <busStop id="468" lane="-31410_0" startPos="0.00" endPos="173.32"/>
    <busStop id="469" lane="--31410_0" startPos="151.89" endPos="161.89"/>
    <busStop id="47" lane="--30856#5_0" startPos="66.24" endPos="76.24"/>
    <busStop id="470" lane="-31952#16_0" startPos="53.79" endPos="63.79"/>
    <busStop id="471" lane="--31952#16_0" startPos="552.98" endPos="562.98"/>
    <busStop id="472" lane="--32638#6_0" startPos="43.22" endPos="53.22"/>
    <busStop id="473" lane="-32638#6_0" startPos="0.00" endPos="141.37"/>
    <busStop id="474" lane="--31066#6_0" startPos="40.02" endPos="50.02"/>
    <busStop id="475" lane="-31066#6_0" startPos="45.85" endPos="55.85"/>
    <busStop id="480" lane="-32592#0_0" startPos="0.00" endPos="40.43"/>
    <busStop id="481" lane="--32592#0_0" startPos="26.93" endPos="36.93"/>
    <busStop id="482" lane="-31022#1_0" startPos="299.30" endPos="309.30"/>
    <busStop id="483" lane="--31022#1_0" startPos="127.87" endPos="137.87"/>
    <busStop id="484" lane="--31858#1_0" startPos="58.93" endPos="68.93"/>
    <busStop id="485" lane="-31858#1_0" startPos="54.51" endPos="64.51"/>
    <busStop id="486" lane="-30856#14_0" startPos="116.10" endPos="126.10"/>
    <busStop id="487" lane="--30856#14_0" startPos="118.88" endPos="128.88"/>
    <busStop id="490" lane="-31988_0" startPos="37.86" endPos="47.86"/>
    <busStop id="491" lane="--31988_0" startPos="723.65" endPos="733.65"/>
    <busStop id="492" lane="--32966#7_0" startPos="52.60" endPos="62.60"/>
    <busStop id="493" lane="-32966#7_0" startPos="40.26" endPos="50.26"/>
    <busStop id="494" lane="--30516#0_0" startPos="55.16" endPos="65.16"/>
    <busStop id="495" lane="-30516#0_0" startPos="259.33" endPos="269.33"/>
    <busStop id="496" lane="-32786#3_0" startPos="78.65" endPos="88.65"/>
    <busStop id="497" lane="--32786#3_0" startPos="130.05" endPos="140.05"/>
    <busStop id="498" lane="--30850#7_0" startPos="145.79" endPos="155.79"/>
    <busStop id="499" lane="-30850#7_0" startPos="272.11" endPos="282.11"/>
    <busStop id="5" lane="--31952#13_0" startPos="67.74" endPos="77.74"/>
    <busStop id="50" lane="-31320#2_0" startPos="48.43" endPos="58.43"/>
    <busStop id="500" lane="-32638#10_0" startPos="26.86" endPos="36.86"/>
    <busStop id="501" lane="--32638#10_0" startPos="38.71" endPos="48.71"/>
    <busStop id="502" lane="--30766#4_0" startPos="57.79" endPos="67.79"/>
    <busStop id="503" lane="-30766#4_0" startPos="58.97" endPos="68.97"/>
    <busStop id="504" lane="--30694#5_0" startPos="10.12" endPos="18.40"/>
    <busStop id="505" lane="-30694#5_0" startPos="8.62" endPos="18.40"/>
    <busStop id="506" lane="--31496#3_0" startPos="310.67" endPos="320.67"/>
    <busStop id="507" lane="-31496#3_0" startPos="47.85" endPos="57.85"/>
    <busStop id="508" lane="-30710#0_0" startPos="35.38" endPos="45.38"/>
    <busStop id="509" lane="--30648#7_0" startPos="143.66" endPos="153.66"/>