<additional xmlns:xsi="http://www.w3.org/2001/XMLSchema-instance" xsi:noNamespaceSchemaLocation="http://sumo.dlr.de/xsd/additional_file.xsd">
  <location xmlns:xsi="http://www.w3.org/2001/XMLSchema-instance" netOffset="-285448.66,-5492398.13" convBoundary="0.00,0.00,13613.76,11455.04" origBoundary="6.030969,49.549099,6.216758,49.652578" projParameter="+proj=utm +zone=32 +ellps=WGS84 +datum=WGS84 +units=m +no_defs"/>
  <poly id="--30244#0Width" type="boundary" color="50,237,50" fill="0" layer="-1.00" shape="9693.302556732631,9760.044801448144 9648.131109009808,9735.832985276924 9637.873692323812,9730.390984795325 9598.554299201576,9706.427362739578 9559.923051261663,9675.483056164756 9525.962599478431,9647.40684107664 9490.061371178299,9614.045284254691 9465.270690728308,9587.635392694228 9440.176937874041,9557.327209140516 9420.865755643528,9530.125931013556 9402.031303276488,9498.806992158788 9393.59960159096,9482.1495190867 9382.475756680338,9459.719471152172 9374.489098319073,9424.305870017777 9370.73469892975,9387.502180229474 9373.240356369673,9359.165728394839 9378.221728562015,9332.069870075366 9388.738608529164,9304.184630698664 9401.604143846336,9279.468003943684 9417.216823718323,9251.96300341325 9440.995757256971,9224.836179338918 9487.515495915153,9178.028520105483 9569.784504084846,9259.791479894517 9525.824242743029,9304.023820661083 9512.243176281676,9319.51699658675 9503.515856153663,9334.891996056316 9494.821391470838,9351.595369301334 9490.418271437984,9363.270129924635 9488.299643630327,9374.79427160516 9487.24530107025,9386.717819770527 9489.170901680927,9405.594129982224 9492.564243319663,9420.640528847829 9497.300398409041,9430.1904809133 9503.608696723511,9442.65300784121 9517.994244356472,9466.574068986445 9532.263062125958,9486.672790859484 9552.309309271694,9510.884607305772 9571.9186288217,9531.774715745309 9602.457400521567,9560.153158923362 9633.136948738338,9585.516943835244 9665.265700798423,9611.252637260422 9695.286307676188,9629.549015204673 9702.708890990192,9633.487014723076 9748.09744326737,9657.815198551856 9693.302556732631,9760.044801448144"/>
  <poly id="--30244#1Width" type="boundary" color="50,237,50" fill="0" layer="-1.00" shape="9858.79803550837,9785.261855418394 9806.485354691304,9767.787129255126 9712.410244389965,9729.075206256084 9728.989755610037,9688.784793743916 9821.694645308697,9726.932870744875 9872.601964491632,9743.938144581607 9858.79803550837,9785.261855418394"/>
  <poly id="--30244#2Width" type="boundary" color="50,237,50" fill="0" layer="-1.00" shape="9999.024373952669,9809.930697085707 9952.558711160602,9803.733253375623 9925.09115232603,9798.639121544285 9912.93054780405,9796.376209386803 9899.577466007458,9793.575715028246 9893.809281653095,9792.384673548933 9889.162775965788,9791.45537241147 9879.79341737774,9789.325009203101 9870.475000726079,9786.931287494419 9860.050722346059,9783.876251454334 9871.349277653942,9745.323748545667 9881.12499927392,9748.18871250558 9889.246582622261,9750.274990796897 9897.557224034214,9752.164627588529 9901.810718346904,9753.015326451068 9907.762533992542,9754.244284971754 9920.72945219595,9756.963790613197 9932.428847673971,9759.140878455713 9958.881288839397,9764.046746624375 10004.335626047332,9770.109302914294 9999.024373952669,9809.930697085707"/>
  <poly id="--30244#3Width" type="boundary" color="50,237,50" fill="0" layer="-1.00" shape="10164.588248981905,9801.721770289854 10126.583394795252,9808.411609633724 10083.969668949472,9811.561229116209 10057.024499691504,9811.396489831483 10030.376602277622,9811.243516826811 10000.525974181637,9809.472630604956 10002.834025818363,9770.567369395045 10031.643397722379,9772.27648317319 10057.255500308494,9772.423510168517 10082.650331050527,9772.57877088379 10121.756605204748,9769.688390366275 10157.831751018093,9763.338229710147 10164.588248981905,9801.721770289854"/>
  <poly id="--30244#4Width" type="boundary" color="50,237,50" fill="0" layer="-1.00" shape="10310.245509649658,9717.411358522413 10299.499045943045,9730.524662876685 10287.838406857438,9744.513017049389 10277.373253047203,9754.583935613351 10266.126908023716,9764.286454437233 10246.90083878681,9780.379054881167 10231.396585746657,9789.403357378262 10225.06140025141,9792.430452060467 10220.077559469202,9794.664587583526 10206.47036593701,9800.378479639368 10197.998097423202,9803.039301469486 10182.746084719107,9806.884079671976 10168.156024500586,9810.506508653329 10154.263975499412,9754.553491346673 10168.753915280893,9750.955920328024 10182.301902576797,9747.540698530516 10186.629634062989,9746.181520360633 10197.122440530798,9741.775412416473 10200.838599748591,9740.109547939534 10204.423414253342,9738.396642621738 10213.65916121319,9733.020945118835 10228.793091976282,9720.353545562766 10238.526746952799,9711.95606438665 10245.58159314256,9705.166982950612 10255.060954056957,9693.795337123314 10265.654490350344,9680.868641477586 10310.245509649658,9717.411358522413"/>
  <poly id="--30246Width" type="boundary" color="50,237,50" fill="0" layer="-1.00" shape="7214.503014079572,7880.972986275443 7211.05454536458,7921.406281958728 7205.0617125353565,7933.27225055667 7208.481191431938,7943.5306872464125 7214.110264521796,7951.956923198825 7212.2416749106405,7952.518480969107 7207.317819174685,7934.1613078067285 7236.482180825315,7926.3386921932715 7248.998325089359,7973.001519030893 7201.409735478204,7987.303076801175 7181.118808568062,7956.929312753587 7172.4382874646435,7930.88774944333 7181.46545463542,7913.013718041272 7184.4169859204285,7878.407013724556 7214.503014079572,7880.972986275443"/>
  <poly id="--30248Width" type="boundary" color="50,237,50" fill="0" layer="-1.00" shape="6956.756101725659,6487.647337146494 7006.97610172566,6399.707337146493 7028.52389827434,6412.012662853506 6978.30389827434,6499.952662853507 6956.756101725659,6487.647337146494"/>
  <poly id="--30250Width" type="boundary" color="50,237,50" fill="0" layer="-1.00" shape="6358.7444394820905,5631.518346081916 6356.214439482091,5546.428346081917 6366.865560517909,5546.111653918084 6369.395560517909,5631.201653918083 6358.7444394820905,5631.518346081916"/>
  <poly id="--30252Width" type="boundary" color="50,237,50" fill="0" layer="-1.00" shape="10023.528908014629,4430.318482972753 10128.15890801463,4333.4484829727535 10141.901091985372,4348.291517027246 10037.27109198537,4445.161517027246 10023.528908014629,4430.318482972753"/>
  <poly id="--30254#0Width" type="boundary" color="50,237,50" fill="0" layer="-1.00" shape="10941.72498536244,8022.583228222523 10925.05498536244,8025.063228222523 10921.30501463756,7999.856771777477 10937.97501463756,7997.376771777476 10941.72498536244,8022.583228222523"/>
  <poly id="--30254#1Width" type="boundary" color="50,237,50" fill="0" layer="-1.00" shape="10970.286030775274,8013.913423369836 10941.296030775275,8018.713423369835 10938.403969224726,8001.246576630164 10967.393969224726,7996.446576630165 10970.286030775274,8013.913423369836"/>
  <poly id="--30256#0Width" type="boundary" color="50,237,50" fill="0" layer="-1.00" shape="6315.808193760223,7224.786752754583 6472.969874200861,7183.9103976811 6480.721095483229,7181.56541874529 6491.123561762098,7178.190609408736 6520.256438237901,7267.989390591264 6508.958904516771,7271.654581254709 6498.530125799139,7274.809602318899 6339.571806239776,7316.153247245417 6315.808193760223,7224.786752754583"/>
  <poly id="--30256#1Width" type="boundary" color="50,237,50" fill="0" layer="-1.00" shape="5961.740684107735,7352.675143917844 5994.416582660702,7343.379588361651 6025.498360683788,7335.973422696274 6051.025019442794,7329.24177172832 6058.011172047561,7327.402769792653 6064.832789086977,7325.776686661165 6081.18254656087,7321.342687490554 6104.603900925969,7314.861682664111 6143.125459802528,7304.049141900479 6179.957465484998,7294.626070376067 6205.631132542329,7287.462256809017 6227.547441341253,7281.896210129927 6267.0876057903415,7270.13186468113 6323.472505127952,7254.879142311817 6331.907494872047,7286.060857688183 6275.9123942096585,7301.2081353188705 6236.132558658747,7313.043789870074 6213.9488674576705,7318.677743190982 6188.302534515003,7325.833929623932 6151.494540197473,7335.25085809952 6113.27609907403,7345.978317335889 6089.71745343913,7352.497312509446 6072.807210913023,7357.083313338836 6065.868827952439,7358.737230207346 6059.254980557207,7360.47822827168 6033.361639316213,7367.306577303727 6002.583417339298,7374.640411638349 5970.579315892264,7383.744856082156 5961.740684107735,7352.675143917844"/>
  <poly id="--30256#2Width" type="boundary" color="50,237,50" fill="0" layer="-1.00" shape="5860.958022854709,7384.892886081694 5905.728756070346,7372.913392860193 5963.10956455543,7357.124177010935 5969.21043544457,7379.295822989065 5911.751243929653,7395.106607139807 5866.901977145291,7407.107113918306 5860.958022854709,7384.892886081694"/>
  <poly id="--30256#3Width" type="boundary" color="50,237,50" fill="0" layer="-1.00" shape="5749.7562620191475,7377.734655156806 5851.246262019148,7349.844655156806 5876.613737980852,7442.155344843194 5775.123737980852,7470.0453448431945 5749.7562620191475,7377.734655156806"/>
  <poly id="--30258Width" type="boundary" color="50,237,50" fill="0" layer="-1.00" shape="9862.689620552146,8655.062132028994 9813.799620552147,8676.942132028995 9802.600379447855,8651.917867971006 9851.490379447854,8630.037867971005 9862.689620552146,8655.062132028994"/>
  <poly id="--30260Width" type="boundary" color="50,237,50" fill="0" layer="-1.00" shape="9416.788378077568,3225.574618808425 9381.400890686822,3159.733847061803 9368.677462472959,3111.5495072289273 9365.43406755377,3066.7839002713617 9362.253645299646,3029.9584380108977 9354.428790240721,2990.4799850662284 9342.854349916934,2961.5973705798847 9320.22569879236,2930.1263962617127 9291.825160685945,2891.967358265232 9270.430911786007,2871.9585401782397 9185.09744710037,2832.7864344773443 9116.117785582415,2787.2424888959754 9098.501987374408,2761.254042662778 9194.998012625592,2695.8459573372224 9199.642214417583,2702.697511104024 9241.862552899629,2730.5735655226554 9336.249088213994,2773.90145982176 9379.094839314053,2813.9726417347674 9414.314301207642,2861.2936037382874 9445.785650083066,2905.062629420115 9466.671209759277,2957.1800149337714 9477.846354700352,3013.5615619891028 9481.645932446232,3057.5560997286384 9484.162537527041,3092.290492771073 9490.599109313178,3116.666152938197 9519.47162192243,3170.385381191575 9416.788378077568,3225.574618808425"/>
  <poly id="--30262#0Width" type="boundary" color="50,237,50" fill="0" layer="-1.00" shape="6164.293184677207,6373.882179653913 6218.653184677207,6536.422179653913 6200.426815322793,6542.517820346087 6146.066815322793,6379.977820346087 6164.293184677207,6373.882179653913"/>
  <poly id="--30262#1Width" type="boundary" color="50,237,50" fill="0" layer="-1.00" shape="6114.235329683915,6254.002438028084 6163.815329683915,6373.342438028084 6146.544670316086,6380.517561971917 6096.964670316086,6261.1775619719165 6114.235329683915,6254.002438028084"/>
  <poly id="--30262#2Width" type="boundary" color="50,237,50" fill="0" layer="-1.00" shape="6001.829775997526,6173.209848088346 6111.169775997526,6249.619848088346 6100.030224002475,6265.560151911654 5990.690224002475,6189.150151911655 6001.829775997526,6173.209848088346"/>
  <poly id="--30264#0Width" type="boundary" color="50,237,50" fill="0" layer="-1.00" shape="10354.457665905687,8706.351260985964 10333.687927735591,8744.7922682055 10272.777831627032,8768.9349241778 10210.579599340797,8748.381684360274 10176.099026439955,8692.624587363089 10185.620440654195,8627.71677626854 10234.637796924091,8584.212374493547 10300.086369509409,8582.29884838781 10334.379513005983,8609.326157057405 10260.100486994017,8703.573842942596 10260.03363049059,8703.521151612189 10281.702203075909,8702.887625506452 10297.999559345804,8688.423223731459 10301.180973560044,8666.735412636912 10289.680400659201,8648.138315639726 10269.062168372968,8641.325075822198 10248.87207226441,8649.3277317945 10248.882334094313,8649.308739014035 10354.457665905687,8706.351260985964"/>
  <poly id="--30264#1Width" type="boundary" color="50,237,50" fill="0" layer="-1.00" shape="10355.992050558665,8644.27639925281 10360.422050558665,8665.65639925281 10242.917949441335,8690.00360074719 10238.487949441334,8668.62360074719 10355.992050558665,8644.27639925281"/>
  <poly id="--30266Width" type="boundary" color="50,237,50" fill="0" layer="-1.00" shape="7575.855618295853,10866.169742922642 7576.581904907348,10866.925649705894 7575.098618915757,10866.022656898038 7575.789229840352,10866.44082498082 7572.883644461119,10865.611522487165 7582.374406491438,10868.329687162057 7609.875199467097,10871.164373159023 7673.534620881539,10866.509745508816 7682.285379118461,10986.190254491185 7608.084800532902,10991.615626840976 7559.5255935085615,10986.610312837942 7539.896355538882,10980.988477512834 7527.390770159648,10977.41917501918 7512.8213810842435,10968.597343101961 7500.858095092653,10961.314350294107 7489.3243817041475,10949.310257077357 7575.855618295853,10866.169742922642"/>
  <poly id="--30270#0Width" type="boundary" color="50,237,50" fill="0" layer="-1.00" shape="7863.661812892294,9857.045994024122 7908.56651787679,9863.879073975386 7933.25206262761,9883.80949595613 7943.014517871279,9909.2113073613 7915.90812149864,10049.771842633598 7879.07187850136,10042.668157366401 7904.145482128721,9912.6486926387 7901.84793737239,9906.67050404387 7892.893482123209,9899.440926024614 7858.018187107707,9894.134005975879 7863.661812892294,9857.045994024122"/>
  <poly id="--30270#1Width" type="boundary" color="50,237,50" fill="0" layer="-1.00" shape="7814.624084920288,9847.329353051186 7862.844084920288,9851.309353051185 7858.835915079712,9899.870646948815 7810.615915079712,9895.890646948816 7814.624084920288,9847.329353051186"/>
  <poly id="--30272Width" type="boundary" color="50,237,50" fill="0" layer="-1.00" shape="6581.6554713588675,9063.78942735142 6560.0951622091525,9108.911855500846 6537.2923073097145,9138.865718669696 6517.853150065878,9163.720563849283 6510.259261197908,9175.388755812664 6494.508539854715,9201.73270677847 6477.071460145285,9191.307293221531 6493.020738802093,9164.631244187336 6501.306849934122,9151.899436150716 6521.2076926902855,9126.454281330303 6542.664837790848,9098.268144499154 6563.324528641132,9055.03057264858 6581.6554713588675,9063.78942735142"/>
  <poly id="--30274Width" type="boundary" color="50,237,50" fill="0" layer="-1.00" shape="6571.322868691473,8248.40146567444 6551.992868691473,8232.47146567444 6565.527131308528,8216.04853432556 6584.857131308528,8231.97853432556 6571.322868691473,8248.40146567444"/>
  <poly id="--30278Width" type="boundary" color="50,237,50" fill="0" layer="-1.00" shape="9342.066606856564,1769.5021360649175 9366.216606856564,1788.2021360649176 9326.543393143435,1839.4378639350823 9302.393393143435,1820.7378639350823 9342.066606856564,1769.5021360649175"/>
  <poly id="--30280Width" type="boundary" color="50,237,50" fill="0" layer="-1.00" shape="8062.047920270886,4259.895448941727 7871.047920270886,4170.845448941727 7876.312079729115,4159.554551058272 8067.312079729115,4248.604551058273 8062.047920270886,4259.895448941727"/>
  <poly id="--30282Width" type="boundary" color="50,237,50" fill="0" layer="-1.00" shape="1908.5034124750925,6901.384954320531 1921.8039936553662,7028.912882351347 1936.3765284444323,7145.99256213026 1937.6652157503281,7157.263115517417 1935.4418963508708,7152.26975883339 1928.9572221432404,7147.191812893023 1925.0171298647228,7146.820644779829 1929.0305402732986,7146.484191212643 1944.4908137895113,7145.0347905704975 1979.7804900006397,7172.0746285680325 1979.075182127119,7232.940085801473 1922.1048178728809,7232.279914198526 1922.4795099993605,7199.945371431968 1927.5691862104886,7203.845209429502 1934.0694597267013,7203.235808787356 1924.722870135277,7204.019355220171 1906.9827778567596,7202.348187106978 1889.158103649129,7188.3902411666095 1882.0547842496717,7172.436884482584 1879.8034715555675,7152.74743786974 1865.1960063446338,7035.387117648652 1851.8365875249076,6907.29504567947 1908.5034124750925,6901.384954320531"/>
  <poly id="--30284#0Width" type="boundary" color="50,237,50" fill="0" layer="-1.00" shape="5823.577854598739,8602.343921633106 5819.107648656443,8603.67786902968 5818.874497316229,8603.937881123375 5818.585199449585,8605.213106119541 5819.392528092401,8643.270202840167 5819.728955395066,8644.830184201932 5824.170426485751,8647.184992694578 5813.52957351425,8667.25500730542 5799.751044604934,8659.949815798067 5796.7274719075995,8645.929797159833 5795.8148005504145,8602.906893880458 5798.02550268377,8593.162118876624 5806.4723513435565,8583.742130970319 5817.082145401261,8580.576078366892 5823.577854598739,8602.343921633106"/>
  <poly id="--30286#0Width" type="boundary" color="50,237,50" fill="0" layer="-1.00" shape="8820.812430204294,2171.893379821521 8819.7791970541,2179.9732630560393 8805.032762863582,2261.8611149588955 8784.807237136418,2258.2188850411044 8799.460802945901,2176.8467369439604 8800.427569795707,2169.286620178479 8820.812430204294,2171.893379821521"/>
  <poly id="--30286#1Width" type="boundary" color="50,237,50" fill="0" layer="-1.00" shape="8834.072142368095,2072.335204446535 8820.762142368096,2171.945204446535 8800.477857631906,2169.234795553465 8813.787857631905,2069.624795553465 8834.072142368095,2072.335204446535"/>
  <poly id="--30286#2Width" type="boundary" color="50,237,50" fill="0" layer="-1.00" shape="8815.467191938813,1952.6714469708124 8826.642589041312,1968.1026517222147 8834.517275208415,1983.0815511652509 8838.5914155401,1999.3556654378278 8840.557682133469,2014.063783910251 8839.969659284558,2028.9307766940813 8838.95092535509,2035.6973146887563 8834.224917595937,2072.308919101436 8813.635082404064,2069.651080898564 8818.38907464491,2032.8226853112437 8819.270340715444,2026.9692233059188 8819.74231786653,2015.036216089749 8818.168584459898,2003.264334562172 8814.982724791585,1990.538448834749 8808.957410958687,1979.0773482777852 8798.652808061186,1964.8485530291875 8815.467191938813,1952.6714469708124"/>
  <poly id="--30286#3Width" type="boundary" color="50,237,50" fill="0" layer="-1.00" shape="8756.467880704751,1932.054976006349 8781.946372589908,1935.8147864329303 8797.31811852519,1942.3899195889808 8811.713232685312,1950.4697578595008 8802.406767314687,1967.0502421404992 8788.90188147481,1959.4700804110194 8776.733627410093,1954.2652135670696 8753.692119295249,1950.865023993651 8756.467880704751,1932.054976006349"/>
  <poly id="--30286#4Width" type="boundary" color="50,237,50" fill="0" layer="-1.00" shape="8681.179998436228,1922.53443160838 8756.269998436228,1931.56443160838 8753.890001563772,1951.3555683916202 8678.800001563772,1942.3255683916202 8681.179998436228,1922.53443160838"/>
  <poly id="--30288#0Width" type="boundary" color="50,237,50" fill="0" layer="-1.00" shape="8483.547093402576,2653.6476991411987 8484.517093402575,2583.317699141199 8515.302906597424,2583.7423008588016 8514.332906597425,2654.0723008588016 8483.547093402576,2653.6476991411987"/>
  <poly id="--30288#1Width" type="boundary" color="50,237,50" fill="0" layer="-1.00" shape="8468.10869284961,2723.867302948384 8472.17869284961,2652.337302948384 8525.701307150392,2655.382697051616 8521.631307150392,2726.912697051616 8468.10869284961,2723.867302948384"/>
  <poly id="--30290Width" type="boundary" color="50,237,50" fill="0" layer="-1.00" shape="10458.722428733403,7780.0376326222095 10454.765862380265,7759.265659268233 10449.138371540726,7734.830501675504 10352.588864487836,7703.09384407434 10360.191135512163,7679.966155925659 10469.781628459272,7715.989498324496 10478.594137619735,7754.254340731767 10482.637571266598,7775.482367377791 10458.722428733403,7780.0376326222095"/>
  <poly id="--30294#0Width" type="boundary" color="50,237,50" fill="0" layer="-1.00" shape="7688.798827264081,5363.717082085618 7700.30097153239,5422.46588145604 7711.861117910385,5474.5870631689995 7713.505101217791,5488.345148472855 7698.69489878221,5490.114851527144 7697.138882089615,5477.092936831001 7685.69902846761,5425.51411854396 7674.161172735918,5366.582917914381 7688.798827264081,5363.717082085618"/>
  <poly id="--30294#1Width" type="boundary" color="50,237,50" fill="0" layer="-1.00" shape="7637.255456187084,5201.578539269838 7645.538778521166,5206.840272324821 7652.408726971732,5212.158942093001 7656.709279405568,5221.17622945427 7658.788596968864,5228.849363288391 7678.702068396084,5313.852239813229 7683.548521677935,5334.542481360182 7689.783756539341,5363.352875237484 7673.176243460658,5366.947124762515 7666.971478322065,5338.277518639818 7662.157931603917,5317.727760186771 7642.311403031136,5233.01063671161 7640.710720594432,5227.103770545731 7638.811273028267,5223.121057906999 7635.761221478833,5220.759727675179 7628.144543812916,5215.921460730162 7637.255456187084,5201.578539269838"/>
  <poly id="--30296Width" type="boundary" color="50,237,50" fill="0" layer="-1.00" shape="8821.867421729661,9977.040291903812 8800.623047969057,10004.708188618928 8797.117211124945,10022.761750145231 8833.817297412428,10055.639564828349 8867.345909686286,10083.223024207426 8884.032788558741,10101.202859919666 8916.059053662953,10140.858418543468 8925.673592079947,10156.716661191418 8943.320985684162,10175.646835223768 8909.739014315839,10206.95316477623 8888.866407920053,10184.56333880858 8878.400946337046,10167.301581456531 8849.307211441259,10131.277140080334 8835.794090313713,10116.716975792573 8803.902702587573,10090.48043517165 8747.082788875055,10039.578249854769 8757.616952030945,9985.331811381073 8785.452578270339,9949.079708096187 8821.867421729661,9977.040291903812"/>
  <poly id="--30304#0Width" type="boundary" color="50,237,50" fill="0" layer="-1.00" shape="3430.576812056043,8645.208284084516 3232.278241305506,8850.302497964389 2880.822945668559,8841.953991147164 2892.430023001708,8684.927675515812 2926.589735053287,8635.697098934048 2952.018039140459,8614.424480585505 2956.866092796771,8560.243485327597 2959.319624260666,8518.969633812743 2970.2579811333485,8477.988600921079 2994.9244712821,8477.510842503565 2996.042081393456,8476.043432670345 3059.3979186065435,8524.296567329655 3034.9555287179,8556.389157496436 3031.7420188666515,8556.45139907892 3038.340375739334,8531.730366187257 3036.2939072032286,8566.156514672404 3028.401960859541,8654.355519414494 2985.910264946713,8689.90290106595 2970.2499769982924,8712.47232448419 2966.417054331441,8764.326008852835 3199.2817586944943,8769.857502035611 3373.323187943957,8589.851715915485 3430.576812056043,8645.208284084516"/>
  <poly id="--30304#1Width" type="boundary" color="50,237,50" fill="0" layer="-1.00" shape="3483.5791824495072,8609.171035204012 3405.019182449507,8629.431035204012 3398.880817550493,8605.62896479599 3477.440817550493,8585.368964795989 3483.5791824495072,8609.171035204012"/>
  <poly id="--30304#2Width" type="boundary" color="50,237,50" fill="0" layer="-1.00" shape="3561.163311575867,8601.184468115971 3481.343311575867,8607.614468115971 3479.6766884241333,8586.92553188403 3559.496688424133,8580.49553188403 3561.163311575867,8601.184468115971"/>
  <poly id="--30306#0Width" type="boundary" color="50,237,50" fill="0" layer="-1.00" shape="833.8907742543278,7159.983097969039 816.3280555422109,7156.779145443544 781.8251740407275,7156.474523794349 728.7430182848593,7157.892478727725 706.7095359628507,7156.930469767848 586.7057077622857,7141.244291294989 596.7142922377144,7064.675708705011 713.4104640371492,7079.9295302321525 729.3969817151408,7080.627521272276 781.1348259592726,7079.24547620565 823.6519444577891,7079.620854556456 847.7492257456723,7084.016902030961 833.8907742543278,7159.983097969039"/>
  <poly id="--30306#1Width" type="boundary" color="50,237,50" fill="0" layer="-1.00" shape="973.1437657555803,7115.99123516247 936.8857315705873,7140.062134371837 912.0430813456146,7143.9615163587105 890.9573108399753,7140.08182056231 839.2426615780644,7130.632798220372 842.3973384219357,7113.367201779628 894.1226891600246,7122.81817943769 912.2769186543853,7126.15848364129 930.3742684294127,7123.3178656281625 963.4362342444197,7101.368764837531 973.1437657555803,7115.99123516247"/>
  <poly id="--30306#2Width" type="boundary" color="50,237,50" fill="0" layer="-1.00" shape="1039.6816929913734,7143.823671191718 1031.9020337814693,7142.637486889109 1023.605740863086,7140.703064475471 1015.4712367854453,7139.096888511096 1006.4385907741824,7136.56121800432 1001.3786136994524,7134.928967335052 996.7714555083967,7133.554902611404 983.7150094960903,7129.2336933861625 969.2236478773302,7123.876085304393 962.2094644547072,7120.161373763773 974.3705355452927,7097.198626236228 979.8563521226697,7100.103914695606 992.3049905039097,7104.706306613838 1004.5685444916032,7108.765097388596 1009.0813863005476,7110.111032664949 1013.9414092258177,7111.67878199568 1021.5087632145547,7113.803111488904 1029.0742591369137,7115.296935524529 1036.8179662185305,7117.102513110891 1043.5983070086268,7118.136328808281 1039.6816929913734,7143.823671191718"/>
  <poly id="--30306#3Width" type="boundary" color="50,237,50" fill="0" layer="-1.00" shape="1092.9554926904993,7151.1216193307055 1039.8354926904994,7138.691619330705 1043.4445073095008,7123.268380669294 1096.5645073095006,7135.698380669294 1092.9554926904993,7151.1216193307055"/>
  <poly id="--30306#4Width" type="boundary" color="50,237,50" fill="0" layer="-1.00" shape="1158.4262335121873,7159.9525415430935 1093.7862335121872,7149.342541543093 1095.7337664878128,7137.477458456907 1160.3737664878129,7148.087458456907 1158.4262335121873,7159.9525415430935"/>
  <poly id="--30306#5Width" type="boundary" color="50,237,50" fill="0" layer="-1.00" shape="1339.2536651994649,7176.288602529544 1301.9588629643865,7175.8858508855365 1209.7866432071671,7168.230784786899 1186.4225672079413,7165.161346971961 1158.3660366956367,7161.012988531928 1160.4339633043635,7147.0270114680725 1188.377432792059,7151.158653028038 1211.2933567928328,7154.169215213101 1302.6211370356134,7161.754149114463 1339.406334800535,7162.151397470457 1339.2536651994649,7176.288602529544"/>
  <poly id="--30306#6Width" type="boundary" color="50,237,50" fill="0" layer="-1.00" shape="1379.789125552939,7176.493919277956 1339.1591255529388,7175.363919277956 1339.500874447061,7163.076080722045 1380.1308744470612,7164.206080722045 1379.789125552939,7176.493919277956"/>
  <poly id="--30314#0Width" type="boundary" color="50,237,50" fill="0" layer="-1.00" shape="1334.461970410021,8334.02849035702 1364.2522576032752,8335.948508866957 1392.0220788419606,8337.738826855124 1404.4244917329024,8338.41660961507 1413.0101088665822,8339.049974813455 1418.5833272658338,8339.371143331378 1424.0678534766525,8339.658758629957 1442.6427805749845,8340.674108342728 1463.2192243048476,8341.63910033006 1492.6720435769278,8343.453442379672 1503.1333296286464,8344.102901399123 1511.6476719306888,8344.622556093611 1519.6292188226598,8345.115120070574 1527.1436966410552,8345.594130608797 1536.1142960767418,8346.13864230294 1595.650336778146,8347.02812498274 1594.729663221854,8408.65187501726 1533.7857039232583,8407.741357697061 1523.3163033589449,8407.105869391204 1515.7707811773403,8406.624879929428 1507.8723280693112,8406.137443906387 1499.3466703713536,8405.617098600878 1488.8679564230722,8404.966557620326 1459.8807756951524,8403.18089966994 1439.5172194250154,8402.225891657274 1420.7721465233476,8401.201241370043 1415.1966727341664,8400.90885666862 1408.9698911334178,8400.550025186543 1400.4755082670977,8399.92339038493 1388.3579211580395,8399.261173144876 1360.2877423967248,8397.451491133044 1330.498029589979,8395.531509642982 1334.461970410021,8334.02849035702"/>
  <poly id="--30314#1Width" type="boundary" color="50,237,50" fill="0" layer="-1.00" shape="1035.9771714194906,8296.988928554389 1260.0714447513642,8311.709866181332 1335.665717523779,8316.720812285987 1329.294282476221,8412.839187714015 1253.728555248636,8407.830133818668 1029.6628285805093,8393.11107144561 1035.9771714194906,8296.988928554389"/>
  <poly id="--30316Width" type="boundary" color="50,237,50" fill="0" layer="-1.00" shape="3196.73259704708,6250.228536406949 3170.677372140395,6292.598156725388 3122.1158554566464,6310.706395920341 3043.8129206766494,6326.692152464844 2985.2856274892097,6338.635478175053 3001.8147941819598,6335.236957920471 2933.00174355459,6442.2214856491455 2890.3787369884594,6517.4330395898205 2779.334121056925,6575.804010683057 2671.5669384346547,6553.355249288968 2574.029303370332,6489.459293520276 2529.9340445819025,6407.1085675738195 2536.729431736494,6295.871688023342 2637.436377892523,6228.793765024764 2721.259007420186,6278.477506206996 2734.8850194689403,6277.9454253189515 2744.521218857684,6263.885856349824 2697.441158433911,6182.669888368182 2674.0295187754814,6016.501249218595 2768.730481224519,6003.158750781405 2789.5388415660886,6150.850111631818 2857.5387811423166,6268.154143650177 2786.6149805310597,6371.634574681048 2696.7809925798138,6375.142493793005 2640.403622107477,6341.726234975236 2629.2905682635064,6349.128311976658 2627.045955418097,6385.87143242618 2646.8306966296677,6422.820706479724 2708.8130615653454,6463.424750711033 2765.2258789430753,6475.175989316943 2821.02126301154,6445.84696041018 2851.1182564454098,6392.738514350854 2943.1452058180403,6249.663042079529 2966.0943725107904,6244.944521824947 3024.6870793233506,6232.987847535156 3095.684144543354,6218.49360407966 3106.4426278596047,6214.4818432746115 3115.26740295292,6200.131463593051 3196.73259704708,6250.228536406949"/>
  <poly id="--30318Width" type="boundary" color="50,237,50" fill="0" layer="-1.00" shape="2042.1871693239916,7937.823465435772 2044.9089146096608,7914.047299721882 2058.55095726872,7841.691770343704 2111.8890427312795,7851.748229656297 2098.6110853903397,7922.172700278117 2096.1128306760083,7943.996534564228 2042.1871693239916,7937.823465435772"/>