<?xml version="1.0" encoding="UTF-8"?>

<additional xmlns:xsi="http://www.w3.org/2001/XMLSchema-instance" xsi:noNamespaceSchemaLocation="http://sumo.dlr.de/xsd/additional_file.xsd">
	<parkingArea id="entryA" lane="entryE_GRG_0" startPos="19.00" endPos="19.20" friendlyPos="1" length="5">
        <space x="78.75" y="21.70" z="1.38" width="2.50" angle="90.00"/>
        <space x="78.75" y="24.20" z="1.38" width="2.50" angle="90.00"/>
    </parkingArea>
    <parkingArea id="a0A" lane="a0E_GRG_0" startPos="19.00" endPos="19.20" friendlyPos="1" length="5">
        <space x="65.00" y="15.50" z="1.38" width="2.50"/>
        <space x="65.00" y="31.71" z="1.38" width="2.50" angle="180.00"/>
        <space x="62.50" y="15.50" z="1.38" width="2.50"/>
        <space x="62.50" y="31.71" z="1.38" width="2.50" angle="180.00"/>
        <space x="60.00" y="15.50" z="1.38" width="2.50"/>
        <space x="60.00" y="31.71" z="1.38" width="2.50" angle="180.00"/>
        <space x="57.50" y="15.50" z="1.38" width="2.50"/>
        <space x="57.50" y="31.71" z="1.38" width="2.50" angle="180.00"/>
        <space x="55.00" y="15.50" z="1.38" width="2.50"/>
        <space x="55.00" y="31.71" z="1.38" width="2.50" angle="180.00"/>
        <space x="52.50" y="15.50" z="1.38" width="2.50"/>
        <space x="52.50" y="31.71" z="1.38" width="2.50" angle="180.00"/>
        <space x="50.00" y="15.50" z="1.38" width="2.50"/>
        <space x="50.00" y="31.71" z="1.38" width="2.50" angle="180.00"/>
        <space x="47.50" y="15.50" z="1.38" width="2.50"/>
        <space x="47.50" y="31.71" z="1.38" width="2.50" angle="180.00"/>
        <space x="45.00" y="15.50" z="1.38" width="2.50"/>
        <space x="45.00" y="31.71" z="1.38" width="2.50" angle="180.00"/>
        <space x="42.50" y="15.50" z="1.38" width="2.50"/>
        <space x="42.50" y="31.71" z="1.38" width="2.50" angle="180.00"/>
        <space x="40.00" y="15.50" z="1.38" width="2.50"/>
        <space x="40.00" y="31.71" z="1.38" width="2.50" angle="180.00"/>
        <space x="37.50" y="15.50" z="1.38" width="2.50"/>
        <space x="37.50" y="31.71" z="1.38" width="2.50" angle="180.00"/>
        <space x="35.00" y="15.50" z="1.38" width="2.50"/>
        <space x="35.00" y="31.71" z="1.38" width="2.50" angle="180.00"/>
        <space x="32.50" y="15.50" z="1.38" width="2.50"/>
        <space x="32.50" y="31.71" z="1.38" width="2.50" angle="180.00"/>
        <space x="30.00" y="15.50" z="1.38" width="2.50"/>
        <space x="30.00" y="31.71" z="1.38" width="2.50" angle="180.00"/>
        <space x="27.50" y="15.50" z="1.38" width="2.50"/>
        <space x="27.50" y="31.71" z="1.38" width="2.50" angle="180.00"/>
        <space x="25.00" y="15.50" z="1.38" width="2.50"/>
        <space x="25.00" y="31.71" z="1.38" width="2.50" angle="180.00"/>
        <space x="22.50" y="15.50" z="1.38" width="2.50"/>
        <space x="22.50" y="31.71" z="1.38" width="2.50" angle="180.00"/>
        <space x="20.00" y="15.50" z="1.38" width="2.50"/>
        <space x="20.00" y="31.71" z="1.38" width="2.50" angle="180.00"/>
        <space x="17.50" y="15.50" z="1.38" width="2.50"/>
        <space x="15.00" y="15.50" z="1.38" width="2.50"/>
        <space x="12.50" y="15.50" z="1.38" width="2.50"/>
        <space x="9.90" y="15.50" z="1.38" width="2.70"/>
    </parkingArea>
    <parkingArea id="b0A" lane="-b0E_GRG_0" startPos="19.00" endPos="19.20" friendlyPos="1" length="5">
        <space x="9.90" y="47.91" width="2.70" angle="180.00"/>
        <space x="12.50" y="47.91" width="2.50" angle="180.00"/>
        <space x="15.00" y="47.91" width="2.50" angle="180.00"/>
        <space x="17.50" y="47.91" width="2.50" angle="180.00"/>
        <space x="20.00" y="47.91" width="2.50" angle="180.00"/>
        <space x="20.00" y="31.71" width="2.50"/>
        <space x="22.50" y="47.91" width="2.50" angle="180.00"/>
        <space x="22.50" y="31.71" width="2.50"/>
        <space x="25.00" y="47.91" width="2.50" angle="180.00"/>
        <space x="25.00" y="31.71" width="2.50"/>
        <space x="27.50" y="47.91" width="2.50" angle="180.00"/>
        <space x="27.50" y="31.71" width="2.50"/>
        <space x="30.00" y="47.91" width="2.50" angle="180.00"/>
        <space x="30.00" y="31.71" width="2.50"/>
        <space x="32.50" y="47.91" width="2.50" angle="180.00"/>
        <space x="32.50" y="31.71" width="2.50"/>
        <space x="35.00" y="47.91" width="2.50" angle="180.00"/>
        <space x="35.00" y="31.71" width="2.50"/>
        <space x="37.50" y="47.91" width="2.50" angle="180.00"/>
        <space x="37.50" y="31.71" width="2.50"/>
        <space x="40.00" y="47.91" width="2.50" angle="180.00"/>
        <space x="40.00" y="31.71" width="2.50"/>
        <space x="42.50" y="47.91" width="2.50" angle="180.00"/>
        <space x="42.50" y="31.71" width="2.50"/>
        <space x="45.00" y="47.91" width="2.50" angle="180.00"/>
        <space x="45.00" y="31.71" width="2.50"/>
        <space x="47.50" y="47.91" width="2.50" angle="180.00"/>
        <space x="47.50" y="31.71" width="2.50"/>
        <space x="50.00" y="47.91" width="2.50" angle="180.00"/>
        <space x="50.00" y="31.71" width="2.50"/>
        <space x="52.50" y="47.91" width="2.50" angle="180.00"/>
        <space x="52.50" y="31.71" width="2.50"/>
        <space x="55.00" y="47.91" width="2.50" angle="180.00"/>
        <space x="55.00" y="31.71" width="2.50"/>
        <space x="57.50" y="31.71" width="2.50"/>
        <space x="60.63" y="47.91" width="3.75" angle="180.00"/>
        <space x="60.63" y="31.71" width="3.75"/>
        <space x="64.38" y="47.91" width="3.75" angle="180.00"/>
        <space x="64.38" y="31.71" width="3.75"/>
        <space x="68.13" y="47.91" width="3.75" angle="180.00"/>
        <space x="68.13" y="31.71" width="3.75"/>
        <space x="71.88" y="47.91" width="3.75" angle="180.00"/>
        <space x="71.88" y="31.71" width="3.75"/>
    </parkingArea>
    
    <parkingArea id="a1A" lane="-a1E_GRG_0" startPos="19.00" endPos="19.20" friendlyPos="1" length="5">
        <space x="9.90" y="15.50" z="4.13" width="2.70"/>
        <space x="12.50" y="15.50" z="4.13" width="2.50"/>
        <space x="15.00" y="15.50" z="4.13" width="2.50"/>
        <space x="17.50" y="15.50" z="4.13" width="2.50"/>
        <space x="20.00" y="31.71" z="4.13" width="2.50" angle="180.00"/>
        <space x="20.00" y="15.50" z="4.13" width="2.50"/>
        <space x="22.50" y="31.71" z="4.13" width="2.50" angle="180.00"/>
        <space x="22.50" y="15.50" z="4.13" width="2.50"/>
        <space x="25.00" y="31.71" z="4.13" width="2.50" angle="180.00"/>
        <space x="25.00" y="15.50" z="4.13" width="2.50"/>
        <space x="27.50" y="31.71" z="4.13" width="2.50" angle="180.00"/>
        <space x="27.50" y="15.50" z="4.13" width="2.50"/>
        <space x="30.00" y="31.71" z="4.13" width="2.50" angle="180.00"/>
        <space x="30.00" y="15.50" z="4.13" width="2.50"/>
        <space x="32.50" y="31.71" z="4.13" width="2.50" angle="180.00"/>
        <space x="32.50" y="15.50" z="4.13" width="2.50"/>
        <space x="35.00" y="31.71" z="4.13" width="2.50" angle="180.00"/>
        <space x="35.00" y="15.50" z="4.13" width="2.50"/>
        <space x="37.50" y="31.71" z="4.13" width="2.50" angle="180.00"/>
        <space x="37.50" y="15.50" z="4.13" width="2.50"/>
        <space x="40.00" y="31.71" z="4.13" width="2.50" angle="180.00"/>
        <space x="40.00" y="15.50" z="4.13" width="2.50"/>
        <space x="42.50" y="31.71" z="4.13" width="2.50" angle="180.00"/>
        <space x="42.50" y="15.50" z="4.13" width="2.50"/>
        <space x="45.00" y="31.71" z="4.13" width="2.50" angle="180.00"/>
        <space x="45.00" y="15.50" z="4.13" width="2.50"/>
        <space x="47.50" y="31.71" z="4.13" width="2.50" angle="180.00"/>
        <space x="47.50" y="15.50" z="4.13" width="2.50"/>
        <space x="50.00" y="31.71" z="4.13" width="2.50" angle="180.00"/>
        <space x="50.00" y="15.50" z="4.13" width="2.50"/>
        <space x="52.50" y="31.71" z="4.13" width="2.50" angle="180.00"/>
        <space x="52.50" y="15.50" z="4.13" width="2.50"/>
        <space x="55.00" y="31.71" z="4.13" width="2.50" angle="180.00"/>
        <space x="55.00" y="15.50" z="4.13" width="2.50"/>
        <space x="57.50" y="31.71" z="4.13" width="2.50" angle="180.00"/>
        <space x="57.50" y="15.50" z="4.13" width="2.50"/>
        <space x="60.00" y="31.71" z="4.13" width="2.50" angle="180.00"/>
        <space x="60.00" y="15.50" z="4.13" width="2.50"/>
        <space x="62.50" y="31.71" z="4.13" width="2.50" angle="180.00"/>
        <space x="62.50" y="15.50" z="4.13" width="2.50"/>
        <space x="65.00" y="31.71" z="4.13" width="2.50" angle="180.00"/>
        <space x="65.00" y="15.50" z="4.13" width="2.50"/>
        <space x="67.50" y="15.50" z="4.13" width="2.50"/>
        <space x="70.00" y="15.50" z="4.13" width="2.50"/>
        <space x="72.50" y="15.50" z="4.13" width="2.50"/>
        <space x="75.00" y="15.50" z="4.13" width="2.50"/>
        <space x="77.60" y="15.50" z="4.13" width="2.70"/>
    </parkingArea>
    <parkingArea id="b1A" lane="b1E_GRG_0" startPos="19.00" endPos="19.20" friendlyPos="1" length="5">
        <space x="77.60" y="47.91" z="2.75" width="2.70" angle="180.00"/>
        <space x="75.00" y="47.91" z="2.75" width="2.50" angle="180.00"/>
        <space x="72.50" y="47.91" z="2.75" width="2.50" angle="180.00"/>
        <space x="70.00" y="47.91" z="2.75" width="2.50" angle="180.00"/>
        <space x="67.50" y="47.91" z="2.75" width="2.50" angle="180.00"/>
        <space x="65.00" y="31.71" z="2.75" width="2.50"/>
        <space x="65.00" y="47.91" z="2.75" width="2.50" angle="180.00"/>
        <space x="62.50" y="31.71" z="2.75" width="2.50"/>
        <space x="62.50" y="47.91" z="2.75" width="2.50" angle="180.00"/>
        <space x="60.00" y="31.71" z="2.75" width="2.50"/>
        <space x="60.00" y="47.91" z="2.75" width="2.50" angle="180.00"/>
        <space x="57.50" y="31.71" z="2.75" width="2.50"/>
        <space x="57.50" y="47.91" z="2.75" width="2.50" angle="180.00"/>
        <space x="55.00" y="31.71" z="2.75" width="2.50"/>
        <space x="55.00" y="47.91" z="2.75" width="2.50" angle="180.00"/>
        <space x="52.50" y="31.71" z="2.75" width="2.50"/>
        <space x="52.50" y="47.91" z="2.75" width="2.50" angle="180.00"/>
        <space x="50.00" y="31.71" z="2.75" width="2.50"/>
        <space x="50.00" y="47.91" z="2.75" width="2.50" angle="180.00"/>
        <space x="47.50" y="31.71" z="2.75" width="2.50"/>
        <space x="47.50" y="47.91" z="2.75" width="2.50" angle="180.00"/>
        <space x="45.00" y="31.71" z="2.75" width="2.50"/>
        <space x="45.00" y="47.91" z="2.75" width="2.50" angle="180.00"/>
        <space x="42.50" y="31.71" z="2.75" width="2.50"/>
        <space x="42.50" y="47.91" z="2.75" width="2.50" angle="180.00"/>
        <space x="40.00" y="31.71" z="2.75" width="2.50"/>
        <space x="40.00" y="47.91" z="2.75" width="2.50" angle="180.00"/>
        <space x="37.50" y="31.71" z="2.75" width="2.50"/>
        <space x="37.50" y="47.91" z="2.75" width="2.50" angle="180.00"/>
        <space x="35.00" y="31.71" z="2.75" width="2.50"/>
        <space x="35.00" y="47.91" z="2.75" width="2.50" angle="180.00"/>
        <space x="32.50" y="31.71" z="2.75" width="2.50"/>
        <space x="32.50" y="47.91" z="2.75" width="2.50" angle="180.00"/>
        <space x="30.00" y="31.71" z="2.75" width="2.50"/>
        <space x="30.00" y="47.91" z="2.75" width="2.50" angle="180.00"/>
        <space x="27.50" y="31.71" z="2.75" width="2.50"/>
        <space x="27.50" y="47.91" z="2.75" width="2.50" angle="180.00"/>
        <space x="25.00" y="31.71" z="2.75" width="2.50"/>
        <space x="25.00" y="47.91" z="2.75" width="2.50" angle="180.00"/>
        <space x="22.50" y="31.71" z="2.75" width="2.50"/>
        <space x="22.50" y="47.91" z="2.75" width="2.50" angle="180.00"/>
        <space x="20.00" y="31.71" z="2.75" width="2.50"/>
        <space x="20.00" y="47.91" z="2.75" width="2.50" angle="180.00"/>
        <space x="17.50" y="47.91" z="2.75" width="2.50" angle="180.00"/>
        <space x="15.00" y="47.91" z="2.75" width="2.50" angle="180.00"/>
        <space x="12.50" y="47.91" z="2.75" width="2.50" angle="180.00"/>
        <space x="9.90" y="47.91" z="2.75" width="2.70" angle="180.00"/>
    </parkingArea>
    
    <parkingArea id="a2A" lane="-a2E_GRG_0" startPos="19.00" endPos="19.20" friendlyPos="1" length="5">
        <space x="9.90" y="15.50" z="6.88" width="2.70"/>
        <space x="12.50" y="15.50" z="6.88" width="2.50"/>
        <space x="15.00" y="15.50" z="6.88" width="2.50"/>
        <space x="17.50" y="15.50" z="6.88" width="2.50"/>
        <space x="20.00" y="31.71" z="6.88" width="2.50" angle="180.00"/>
        <space x="20.00" y="15.50" z="6.88" width="2.50"/>
        <space x="22.50" y="31.71" z="6.88" width="2.50" angle="180.00"/>
        <space x="22.50" y="15.50" z="6.88" width="2.50"/>
        <space x="25.00" y="31.71" z="6.88" width="2.50" angle="180.00"/>
        <space x="25.00" y="15.50" z="6.88" width="2.50"/>
        <space x="27.50" y="31.71" z="6.88" width="2.50" angle="180.00"/>
        <space x="27.50" y="15.50" z="6.88" width="2.50"/>
        <space x="30.00" y="31.71" z="6.88" width="2.50" angle="180.00"/>
        <space x="30.00" y="15.50" z="6.88" width="2.50"/>
        <space x="32.50" y="31.71" z="6.88" width="2.50" angle="180.00"/>
        <space x="32.50" y="15.50" z="6.88" width="2.50"/>
        <space x="35.00" y="31.71" z="6.88" width="2.50" angle="180.00"/>
        <space x="35.00" y="15.50" z="6.88" width="2.50"/>
        <space x="37.50" y="31.71" z="6.88" width="2.50" angle="180.00"/>
        <space x="37.50" y="15.50" z="6.88" width="2.50"/>
        <space x="40.00" y="31.71" z="6.88" width="2.50" angle="180.00"/>
        <space x="40.00" y="15.50" z="6.88" width="2.50"/>
        <space x="42.50" y="31.71" z="6.88" width="2.50" angle="180.00"/>
        <space x="42.50" y="15.50" z="6.88" width="2.50"/>
        <space x="45.00" y="31.71" z="6.88" width="2.50" angle="180.00"/>
        <space x="45.00" y="15.50" z="6.88" width="2.50"/>
        <space x="47.50" y="31.71" z="6.88" width="2.50" angle="180.00"/>
        <space x="47.50" y="15.50" z="6.88" width="2.50"/>
        <space x="50.00" y="31.71" z="6.88" width="2.50" angle="180.00"/>
        <space x="50.00" y="15.50" z="6.88" width="2.50"/>
        <space x="52.50" y="31.71" z="6.88" width="2.50" angle="180.00"/>
        <space x="52.50" y="15.50" z="6.88" width="2.50"/>
        <space x="55.00" y="31.71" z="6.88" width="2.50" angle="180.00"/>
        <space x="55.00" y="15.50" z="6.88" width="2.50"/>
        <space x="57.50" y="31.71" z="6.88" width="2.50" angle="180.00"/>
        <space x="57.50" y="15.50" z="6.88" width="2.50"/>
        <space x="60.00" y="31.71" z="6.88" width="2.50" angle="180.00"/>
        <space x="60.00" y="15.50" z="6.88" width="2.50"/>
        <space x="62.50" y="31.71" z="6.88" width="2.50" angle="180.00"/>
        <space x="62.50" y="15.50" z="6.88" width="2.50"/>
        <space x="65.00" y="31.71" z="6.88" width="2.50" angle="180.00"/>
        <space x="65.00" y="15.50" z="6.88" width="2.50"/>
        <space x="67.50" y="15.50" z="6.88" width="2.50"/>
        <space x="70.00" y="15.50" z="6.88" width="2.50"/>
        <space x="72.50" y="15.50" z="6.88" width="2.50"/>
        <space x="75.00" y="15.50" z="6.88" width="2.50"/>
        <space x="77.60" y="15.50" z="6.88" width="2.70"/>
    </parkingArea>
    <parkingArea id="b2A" lane="b2E_GRG_0" startPos="19.00" endPos="19.20" friendlyPos="1" length="5">
        <space x="77.60" y="47.91" z="5.50" width="2.70" angle="180.00"/>
        <space x="75.00" y="47.91" z="5.50" width="2.50" angle="180.00"/>
        <space x="72.50" y="47.91" z="5.50" width="2.50" angle="180.00"/>
        <space x="70.00" y="47.91" z="5.50" width="2.50" angle="180.00"/>
        <space x="67.50" y="47.91" z="5.50" width="2.50" angle="180.00"/>
        <space x="65.00" y="31.71" z="5.50" width="2.50"/>
        <space x="65.00" y="47.91" z="5.50" width="2.50" angle="180.00"/>
        <space x="62.50" y="31.71" z="5.50" width="2.50"/>
        <space x="62.50" y="47.91" z="5.50" width="2.50" angle="180.00"/>
        <space x="60.00" y="31.71" z="5.50" width="2.50"/>
        <space x="60.00" y="47.91" z="5.50" width="2.50" angle="180.00"/>
        <space x="57.50" y="31.71" z="5.50" width="2.50"/>
        <space x="57.50" y="47.91" z="5.50" width="2.50" angle="180.00"/>
        <space x="55.00" y="31.71" z="5.50" width="2.50"/>
        <space x="55.00" y="47.91" z="5.50" width="2.50" angle="180.00"/>
        <space x="52.50" y="31.71" z="5.50" width="2.50"/>
        <space x="52.50" y="47.91" z="5.50" width="2.50" angle="180.00"/>
        <space x="50.00" y="31.71" z="5.50" width="2.50"/>
        <space x="50.00" y="47.91" z="5.50" width="2.50" angle="180.00"/>
        <space x="47.50" y="31.71" z="5.50" width="2.50"/>
        <space x="47.50" y="47.91" z="5.50" width="2.50" angle="180.00"/>
        <space x="45.00" y="31.71" z="5.50" width="2.50"/>
        <space x="45.00" y="47.91" z="5.50" width="2.50" angle="180.00"/>
        <space x="42.50" y="31.71" z="5.50" width="2.50"/>
        <space x="42.50" y="47.91" z="5.50" width="2.50" angle="180.00"/>
        <space x="40.00" y="31.71" z="5.50" width="2.50"/>
        <space x="40.00" y="47.91" z="5.50" width="2.50" angle="180.00"/>
        <space x="37.50" y="31.71" z="5.50" width="2.50"/>
        <space x="37.50" y="47.91" z="5.50" width="2.50" angle="180.00"/>
        <space x="35.00" y="31.71" z="5.50" width="2.50"/>
        <space x="35.00" y="47.91" z="5.50" width="2.50" angle="180.00"/>
        <space x="32.50" y="31.71" z="5.50" width="2.50"/>
        <space x="32.50" y="47.91" z="5.50" width="2.50" angle="180.00"/>
        <space x="30.00" y="31.71" z="5.50" width="2.50"/>
        <space x="30.00" y="47.91" z="5.50" width="2.50" angle="180.00"/>
        <space x="27.50" y="31.71" z="5.50" width="2.50"/>
        <space x="27.50" y="47.91" z="5.50" width="2.50" angle="180.00"/>
        <space x="25.00" y="31.71" z="5.50" width="2.50"/>
        <space x="25.00" y="47.91" z="5.50" width="2.50" angle="180.00"/>
        <space x="22.50" y="31.71" z="5.50" width="2.50"/>
        <space x="22.50" y="47.91" z="5.50" width="2.50" angle="180.00"/>
        <space x="20.00" y="31.71" z="5.50" width="2.50"/>
        <space x="20.00" y="47.91" z="5.50" width="2.50" angle="180.00"/>
        <space x="17.50" y="47.91" z="5.50" width="2.50" angle="180.00"/>
        <space x="15.00" y="47.91" z="5.50" width="2.50" angle="180.00"/>
        <space x="12.50" y="47.91" z="5.50" width="2.50" angle="180.00"/>
        <space x="9.90" y="47.91" z="5.50" width="2.70" angle="180.00"/>
    </parkingArea>
    
    <parkingArea id="a3A" lane="-a3E_GRG_0" startPos="19.00" endPos="19.20" friendlyPos="1" length="5">
        <space x="9.90" y="15.50" z="9.63" width="2.70"/>
        <space x="12.50" y="15.50" z="9.63" width="2.50"/>
        <space x="15.00" y="15.50" z="9.63" width="2.50"/>
        <space x="17.50" y="15.50" z="9.63" width="2.50"/>
        <space x="20.00" y="31.71" z="9.63" width="2.50" angle="180.00"/>
        <space x="20.00" y="15.50" z="9.63" width="2.50"/>
        <space x="22.50" y="31.71" z="9.63" width="2.50" angle="180.00"/>
        <space x="22.50" y="15.50" z="9.63" width="2.50"/>
        <space x="25.00" y="31.71" z="9.63" width="2.50" angle="180.00"/>
        <space x="25.00" y="15.50" z="9.63" width="2.50"/>
        <space x="27.50" y="31.71" z="9.63" width="2.50" angle="180.00"/>
        <space x="27.50" y="15.50" z="9.63" width="2.50"/>
        <space x="30.00" y="31.71" z="9.63" width="2.50" angle="180.00"/>
        <space x="30.00" y="15.50" z="9.63" width="2.50"/>
        <space x="32.50" y="31.71" z="9.63" width="2.50" angle="180.00"/>
        <space x="32.50" y="15.50" z="9.63" width="2.50"/>
        <space x="35.00" y="31.71" z="9.63" width="2.50" angle="180.00"/>
        <space x="35.00" y="15.50" z="9.63" width="2.50"/>
        <space x="37.50" y="31.71" z="9.63" width="2.50" angle="180.00"/>
        <space x="37.50" y="15.50" z="9.63" width="2.50"/>
        <space x="40.00" y="31.71" z="9.63" width="2.50" angle="180.00"/>
        <space x="40.00" y="15.50" z="9.63" width="2.50"/>
        <space x="42.50" y="31.71" z="9.63" width="2.50" angle="180.00"/>
        <space x="42.50" y="15.50" z="9.63" width="2.50"/>
        <space x="45.00" y="31.71" z="9.63" width="2.50" angle="180.00"/>
        <space x="45.00" y="15.50" z="9.63" width="2.50"/>
        <space x="47.50" y="31.71" z="9.63" width="2.50" angle="180.00"/>
        <space x="47.50" y="15.50" z="9.63" width="2.50"/>
        <space x="50.00" y="31.71" z="9.63" width="2.50" angle="180.00"/>
        <space x="50.00" y="15.50" z="9.63" width="2.50"/>
        <space x="52.50" y="31.71" z="9.63" width="2.50" angle="180.00"/>
        <space x="52.50" y="15.50" z="9.63" width="2.50"/>
        <space x="55.00" y="31.71" z="9.63" width="2.50" angle="180.00"/>
        <space x="55.00" y="15.50" z="9.63" width="2.50"/>
        <space x="57.50" y="31.71" z="9.63" width="2.50" angle="180.00"/>
        <space x="57.50" y="15.50" z="9.63" width="2.50"/>
        <space x="60.00" y="31.71" z="9.63" width="2.50" angle="180.00"/>
        <space x="60.00" y="15.50" z="9.63" width="2.50"/>
        <space x="62.50" y="31.71" z="9.63" width="2.50" angle="180.00"/>
        <space x="62.50" y="15.50" z="9.63" width="2.50"/>
        <space x="65.00" y="31.71" z="9.63" width="2.50" angle="180.00"/>
        <space x="65.00" y="15.50" z="9.63" width="2.50"/>
        <space x="67.50" y="15.50" z="9.63" width="2.50"/>
        <space x="70.00" y="15.50" z="9.63" width="2.50"/>
        <space x="72.50" y="15.50" z="9.63" width="2.50"/>
        <space x="75.00" y="15.50" z="9.63" width="2.50"/>
        <space x="77.60" y="15.50" z="9.63" width="2.70"/>
    </parkingArea>
    <parkingArea id="b3A" lane="b3E_GRG_0" startPos="19.00" endPos="19.20" friendlyPos="1" length="5">
        <space x="77.60" y="47.91" z="8.25" width="2.70" angle="180.00"/>
        <space x="75.00" y="47.91" z="8.25" width="2.50" angle="180.00"/>
        <space x="72.50" y="47.91" z="8.25" width="2.50" angle="180.00"/>
        <space x="70.00" y="47.91" z="8.25" width="2.50" angle="180.00"/>
        <space x="67.50" y="47.91" z="8.25" width="2.50" angle="180.00"/>
        <space x="65.00" y="31.71" z="8.25" width="2.50"/>
        <space x="65.00" y="47.91" z="8.25" width="2.50" angle="180.00"/>
        <space x="62.50" y="31.71" z="8.25" width="2.50"/>
        <space x="62.50" y="47.91" z="8.25" width="2.50" angle="180.00"/>
        <space x="60.00" y="31.71" z="8.25" width="2.50"/>
        <space x="60.00" y="47.91" z="8.25" width="2.50" angle="180.00"/>
        <space x="57.50" y="31.71" z="8.25" width="2.50"/>
        <space x="57.50" y="47.91" z="8.25" width="2.50" angle="180.00"/>
        <space x="55.00" y="31.71" z="8.25" width="2.50"/>
        <space x="55.00" y="47.91" z="8.25" width="2.50" angle="180.00"/>
        <space x="52.50" y="31.71" z="8.25" width="2.50"/>
        <space x="52.50" y="47.91" z="8.25" width="2.50" angle="180.00"/>
        <space x="50.00" y="31.71" z="8.25" width="2.50"/>
        <space x="50.00" y="47.91" z="8.25" width="2.50" angle="180.00"/>
        <space x="47.50" y="31.71" z="8.25" width="2.50"/>
        <space x="47.50" y="47.91" z="8.25" width="2.50" angle="180.00"/>
        <space x="45.00" y="31.71" z="8.25" width="2.50"/>
        <space x="45.00" y="47.91" z="8.25" width="2.50" angle="180.00"/>
        <space x="42.50" y="31.71" z="8.25" width="2.50"/>
        <space x="42.50" y="47.91" z="8.25" width="2.50" angle="180.00"/>
        <space x="40.00" y="31.71" z="8.25" width="2.50"/>
        <space x="40.00" y="47.91" z="8.25" width="2.50" angle="180.00"/>
        <space x="37.50" y="31.71" z="8.25" width="2.50"/>
        <space x="37.50" y="47.91" z="8.25" width="2.50" angle="180.00"/>
        <space x="35.00" y="31.71" z="8.25" width="2.50"/>
        <space x="35.00" y="47.91" z="8.25" width="2.50" angle="180.00"/>
        <space x="32.50" y="31.71" z="8.25" width="2.50"/>
        <space x="32.50" y="47.91" z="8.25" width="2.50" angle="180.00"/>
        <space x="30.00" y="31.71" z="8.25" width="2.50"/>
        <space x="30.00" y="47.91" z="8.25" width="2.50" angle="180.00"/>
        <space x="27.50" y="31.71" z="8.25" width="2.50"/>
        <space x="27.50" y="47.91" z="8.25" width="2.50" angle="180.00"/>
        <space x="25.00" y="31.71" z="8.25" width="2.50"/>
        <space x="25.00" y="47.91" z="8.25" width="2.50" angle="180.00"/>
        <space x="22.50" y="31.71" z="8.25" width="2.50"/>
        <space x="22.50" y="47.91" z="8.25" width="2.50" angle="180.00"/>
        <space x="20.00" y="31.71" z="8.25" width="2.50"/>
        <space x="20.00" y="47.91" z="8.25" width="2.50" angle="180.00"/>
        <space x="17.50" y="47.91" z="8.25" width="2.50" angle="180.00"/>
        <space x="15.00" y="47.91" z="8.25" width="2.50" angle="180.00"/>
        <space x="12.50" y="47.91" z="8.25" width="2.50" angle="180.00"/>
        <space x="9.90" y="47.91" z="8.25" width="2.70" angle="180.00"/>
    </parkingArea>
    
    <parkingArea id="a4A" lane="-a4E_GRG_0" startPos="19.00" endPos="19.20" friendlyPos="1" length="5">
        <space x="9.90" y="15.50" z="12.38" width="2.70"/>
        <space x="12.50" y="15.50" z="12.38" width="2.50"/>
        <space x="15.00" y="15.50" z="12.38" width="2.50"/>
        <space x="17.50" y="15.50" z="12.38" width="2.50"/>
        <space x="20.00" y="31.71" z="12.38" width="2.50" angle="180.00"/>
        <space x="20.00" y="15.50" z="12.38" width="2.50"/>
        <space x="22.50" y="31.71" z="12.38" width="2.50" angle="180.00"/>
        <space x="22.50" y="15.50" z="12.38" width="2.50"/>
        <space x="25.00" y="31.71" z="12.38" width="2.50" angle="180.00"/>
        <space x="25.00" y="15.50" z="12.38" width="2.50"/>
        <space x="27.50" y="31.71" z="12.38" width="2.50" angle="180.00"/>
        <space x="27.50" y="15.50" z="12.38" width="2.50"/>
        <space x="30.00" y="31.71" z="12.38" width="2.50" angle="180.00"/>
        <space x="30.00" y="15.50" z="12.38" width="2.50"/>
        <space x="32.50" y="31.71" z="12.38" width="2.50" angle="180.00"/>
        <space x="32.50" y="15.50" z="12.38" width="2.50"/>
        <space x="35.00" y="31.71" z="12.38" width="2.50" angle="180.00"/>
        <space x="35.00" y="15.50" z="12.38" width="2.50"/>
        <space x="37.50" y="31.71" z="12.38" width="2.50" angle="180.00"/>
        <space x="37.50" y="15.50" z="12.38" width="2.50"/>
        <space x="40.00" y="31.71" z="12.38" width="2.50" angle="180.00"/>
        <space x="40.00" y="15.50" z="12.38" width="2.50"/>
        <space x="42.50" y="31.71" z="12.38" width="2.50" angle="180.00"/>
        <space x="42.50" y="15.50" z="12.38" width="2.50"/>
        <space x="45.00" y="31.71" z="12.38" width="2.50" angle="180.00"/>
        <space x="45.00" y="15.50" z="12.38" width="2.50"/>
        <space x="47.50" y="31.71" z="12.38" width="2.50" angle="180.00"/>
        <space x="47.50" y="15.50" z="12.38" width="2.50"/>
        <space x="50.00" y="31.71" z="12.38" width="2.50" angle="180.00"/>
        <space x="50.00" y="15.50" z="12.38" width="2.50"/>
        <space x="52.50" y="31.71" z="12.38" width="2.50" angle="180.00"/>
        <space x="52.50" y="15.50" z="12.38" width="2.50"/>
        <space x="55.00" y="31.71" z="12.38" width="2.50" angle="180.00"/>
        <space x="55.00" y="15.50" z="12.38" width="2.50"/>
        <space x="57.50" y="31.71" z="12.38" width="2.50" angle="180.00"/>
        <space x="57.50" y="15.50" z="12.38" width="2.50"/>
        <space x="60.00" y="31.71" z="12.38" width="2.50" angle="180.00"/>
        <space x="60.00" y="15.50" z="12.38" width="2.50"/>
        <space x="62.50" y="31.71" z="12.38" width="2.50" angle="180.00"/>
        <space x="62.50" y="15.50" z="12.38" width="2.50"/>
        <space x="65.00" y="31.71" z="12.38" width="2.50" angle="180.00"/>
        <space x="65.00" y="15.50" z="12.38" width="2.50"/>
        <space x="67.50" y="15.50" z="12.38" width="2.50"/>
        <space x="70.00" y="15.50" z="12.38" width="2.50"/>
        <space x="72.50" y="15.50" z="12.38" width="2.50"/>
        <space x="75.00" y="15.50" z="12.38" width="2.50"/>
        <space x="77.60" y="15.50" z="12.38" width="2.70"/>
    </parkingArea>
    <parkingArea id="b4A" lane="b4E_GRG_0" startPos="19.00" endPos="19.20" friendlyPos="1" length="5">
        <space x="77.60" y="47.91" z="11.00" width="2.70" angle="180.00"/>
        <space x="75.00" y="47.91" z="11.00" width="2.50" angle="180.00"/>
        <space x="72.50" y="47.91" z="11.00" width="2.50" angle="180.00"/>
        <space x="70.00" y="47.91" z="11.00" width="2.50" angle="180.00"/>
        <space x="67.50" y="47.91" z="11.00" width="2.50" angle="180.00"/>
        <space x="65.00" y="31.71" z="11.00" width="2.50"/>
        <space x="65.00" y="47.91" z="11.00" width="2.50" angle="180.00"/>
        <space x="62.50" y="31.71" z="11.00" width="2.50"/>
        <space x="62.50" y="47.91" z="11.00" width="2.50" angle="180.00"/>
        <space x="60.00" y="31.71" z="11.00" width="2.50"/>
        <space x="60.00" y="47.91" z="11.00" width="2.50" angle="180.00"/>
        <space x="57.50" y="31.71" z="11.00" width="2.50"/>
        <space x="57.50" y="47.91" z="11.00" width="2.50" angle="180.00"/>
        <space x="55.00" y="31.71" z="11.00" width="2.50"/>
        <space x="55.00" y="47.91" z="11.00" width="2.50" angle="180.00"/>
        <space x="52.50" y="31.71" z="11.00" width="2.50"/>
        <space x="52.50" y="47.91" z="11.00" width="2.50" angle="180.00"/>