<?xml version="1.0" encoding="UTF-8"?>

<net version="1.6" junctionCornerDetail="5" limitTurnSpeed="5.50" xmlns:xsi="http://www.w3.org/2001/XMLSchema-instance" xsi:noNamespaceSchemaLocation="http://sumo.dlr.de/xsd/net_file.xsd">

    <location netOffset="0.00,0.00" convBoundary="5.00,7.00,90.00,39.81" origBoundary="-10000000000.00,-10000000000.00,10000000000.00,10000000000.00" projParameter="!"/>

    <edge id=":a0N1_GRG_0" function="internal">
        <lane id=":a0N1_GRG_0_0" index="0" speed="3.35" length="2.77" width="3.10" shape="68.12,26.70,1.38 68.01,26.02,1.38 67.66,25.54,1.38 67.07,25.25,1.38 66.25,25.15,1.38"/>
    </edge>
    <edge id=":a0N1_GRG_1" function="internal">
        <lane id=":a0N1_GRG_1_0" index="0" speed="3.35" length="6.20" width="3.75" shape="68.12,26.70,1.38 68.12,20.50,1.38"/>
    </edge>
    <edge id=":a0N1_GRG_2" function="internal">
        <lane id=":a0N1_GRG_2_0" index="0" speed="3.35" length="6.20" width="3.75" shape="71.88,20.50,1.38 71.88,26.70,1.38"/>
    </edge>
    <edge id=":a0N1_GRG_3" function="internal">
        <lane id=":a0N1_GRG_3_0" index="0" speed="3.35" length="4.38" width="3.10" shape="71.88,20.50,1.38 71.52,22.53,1.38 70.47,23.99,1.38 70.00,24.22,1.38"/>
    </edge>
    <edge id=":a0N1_GRG_4" function="internal">
        <lane id=":a0N1_GRG_4_0" index="0" speed="3.35" length="2.74" width="3.75" shape="71.88,20.50,1.38 70.94,21.91,1.38 70.00,22.38,1.38"/>
    </edge>
    <edge id=":a0N1_GRG_8" function="internal">
        <lane id=":a0N1_GRG_8_0" index="0" speed="3.35" length="3.92" width="3.10" shape="70.00,24.22,1.38 68.71,24.86,1.38 66.25,25.15,1.38"/>
    </edge>
    <edge id=":a0N1_GRG_9" function="internal">
        <lane id=":a0N1_GRG_9_0" index="0" speed="3.35" length="2.74" width="3.75" shape="70.00,22.38,1.38 69.06,21.91,1.38 68.12,20.50,1.38"/>
    </edge>
    <edge id=":a0N1_GRG_5" function="internal">
        <lane id=":a0N1_GRG_5_0" index="0" speed="3.35" length="2.77" width="3.75" shape="66.25,22.05,1.38 67.07,21.95,1.38 67.66,21.66,1.38 68.01,21.18,1.38 68.12,20.50,1.38"/>
    </edge>
    <edge id=":a0N1_GRG_6" function="internal">
        <lane id=":a0N1_GRG_6_0" index="0" speed="3.35" length="8.30" width="3.75" shape="66.25,22.05,1.38 68.71,22.34,1.38 70.47,23.21,1.38 71.52,24.67,1.38 71.88,26.70,1.38"/>
    </edge>
    <edge id=":a0N1_GRG_7" function="internal">
        <lane id=":a0N1_GRG_7_0" index="0" speed="3.35" length="4.53" width="3.10" shape="66.25,22.05,1.38 67.41,22.83,1.38 67.80,23.60,1.38 67.41,24.38,1.38 66.25,25.15,1.38"/>
    </edge>
    <edge id=":a0N2_GRG_0" function="internal">
        <lane id=":a0N2_GRG_0_0" index="0" speed="3.35" length="8.30" width="3.10" shape="13.12,26.70,1.12 13.48,24.67,1.18 14.53,23.21,1.24 16.29,22.34,1.30 18.75,22.05,1.38"/>
    </edge>
    <edge id=":a0N2_GRG_1" function="internal">
        <lane id=":a0N2_GRG_1_0" index="0" speed="3.35" length="2.78" width="3.75" shape="18.75,25.15,1.38 17.93,25.25,1.30 17.34,25.54,1.24 16.99,26.02,1.18 16.88,26.70,1.12"/>
    </edge>
    <edge id=":a0N2_GRG_2" function="internal">
        <lane id=":a0N2_GRG_2_0" index="0" speed="3.35" length="2.06" width="3.10" shape="18.75,25.15,1.38 17.59,24.38,1.38 17.29,23.78,1.38"/>
    </edge>
    <edge id=":a0N2_GRG_3" function="internal">
        <lane id=":a0N2_GRG_3_0" index="0" speed="3.35" length="2.47" width="3.10" shape="17.29,23.78,1.38 17.20,23.60,1.38 17.59,22.83,1.38 18.75,22.05,1.38"/>
    </edge>
    <edge id=":a1N1_GRG_0" function="internal">
        <lane id=":a1N1_GRG_0_0" index="0" speed="3.35" length="2.78" width="3.10" shape="68.12,26.70,4.39 68.01,26.02,4.33 67.66,25.54,4.27 67.07,25.25,4.21 66.25,25.15,4.13"/>
    </edge>
    <edge id=":a1N1_GRG_1" function="internal">
        <lane id=":a1N1_GRG_1_0" index="0" speed="3.29" length="8.30" width="3.75" shape="66.25,22.05,4.13 68.71,22.34,4.21 70.47,23.21,4.27 71.52,24.67,4.33 71.88,26.70,4.39"/>
    </edge>
    <edge id=":a1N1_GRG_2" function="internal">
        <lane id=":a1N1_GRG_2_0" index="0" speed="3.29" length="2.51" width="3.10" shape="66.25,22.05,4.13 67.41,22.83,4.13 67.80,23.60,4.13 67.69,23.82,4.13"/>
    </edge>
    <edge id=":a1N1_GRG_3" function="internal">
        <lane id=":a1N1_GRG_3_0" index="0" speed="3.29" length="2.01" width="3.10" shape="67.69,23.82,4.13 67.41,24.38,4.13 66.25,25.15,4.13"/>
    </edge>
    <edge id=":a1N2_GRG_0" function="internal">
        <lane id=":a1N2_GRG_0_0" index="0" speed="3.22" length="8.30" width="3.10" shape="13.12,26.70,3.87 13.48,24.67,3.93 14.53,23.21,3.99 16.29,22.34,4.05 18.75,22.05,4.13"/>
    </edge>
    <edge id=":a1N2_GRG_1" function="internal">
        <lane id=":a1N2_GRG_1_0" index="0" speed="3.35" length="2.78" width="3.75" shape="18.75,25.15,4.13 17.93,25.25,4.05 17.34,25.54,3.99 16.99,26.02,3.93 16.88,26.70,3.87"/>
    </edge>
    <edge id=":a1N2_GRG_2" function="internal">
        <lane id=":a1N2_GRG_2_0" index="0" speed="3.29" length="2.06" width="3.10" shape="18.75,25.15,4.13 17.59,24.38,4.13 17.29,23.78,4.13"/>
    </edge>
    <edge id=":a1N2_GRG_3" function="internal">
        <lane id=":a1N2_GRG_3_0" index="0" speed="3.29" length="2.47" width="3.10" shape="17.29,23.78,4.13 17.20,23.60,4.13 17.59,22.83,4.13 18.75,22.05,4.13"/>
    </edge>
    <edge id=":a2N1_GRG_0" function="internal">
        <lane id=":a2N1_GRG_0_0" index="0" speed="3.35" length="2.78" width="3.10" shape="68.12,26.70,7.14 68.01,26.02,7.08 67.66,25.54,7.02 67.07,25.25,6.96 66.25,25.15,6.88"/>
    </edge>
    <edge id=":a2N1_GRG_1" function="internal">
        <lane id=":a2N1_GRG_1_0" index="0" speed="3.47" length="8.30" width="3.75" shape="66.25,22.05,6.88 68.71,22.34,6.96 70.47,23.21,7.02 71.52,24.67,7.08 71.88,26.70,7.14"/>
    </edge>
    <edge id=":a2N1_GRG_2" function="internal">
        <lane id=":a2N1_GRG_2_0" index="0" speed="3.47" length="2.51" width="3.10" shape="66.25,22.05,6.88 67.41,22.83,6.88 67.80,23.60,6.88 67.69,23.82,6.88"/>
    </edge>
    <edge id=":a2N1_GRG_3" function="internal">
        <lane id=":a2N1_GRG_3_0" index="0" speed="3.47" length="2.01" width="3.10" shape="67.69,23.82,6.88 67.41,24.38,6.88 66.25,25.15,6.88"/>
    </edge>
    <edge id=":a2N2_GRG_0" function="internal">
        <lane id=":a2N2_GRG_0_0" index="0" speed="3.59" length="8.30" width="3.10" shape="13.12,26.70,6.62 13.48,24.67,6.68 14.53,23.21,6.74 16.29,22.34,6.80 18.75,22.05,6.88"/>
    </edge>
    <edge id=":a2N2_GRG_1" function="internal">
        <lane id=":a2N2_GRG_1_0" index="0" speed="3.35" length="2.78" width="3.75" shape="18.75,25.15,6.88 17.93,25.25,6.80 17.34,25.54,6.74 16.99,26.02,6.68 16.88,26.70,6.62"/>
    </edge>
    <edge id=":a2N2_GRG_2" function="internal">
        <lane id=":a2N2_GRG_2_0" index="0" speed="3.47" length="2.06" width="3.10" shape="18.75,25.15,6.88 17.59,24.38,6.88 17.29,23.78,6.88"/>
    </edge>
    <edge id=":a2N2_GRG_3" function="internal">
        <lane id=":a2N2_GRG_3_0" index="0" speed="3.47" length="2.47" width="3.10" shape="17.29,23.78,6.88 17.20,23.60,6.88 17.59,22.83,6.88 18.75,22.05,6.88"/>
    </edge>
    <edge id=":a3N1_GRG_0" function="internal">
        <lane id=":a3N1_GRG_0_0" index="0" speed="3.35" length="2.78" width="3.10" shape="68.12,26.70,9.89 68.01,26.02,9.83 67.66,25.54,9.77 67.07,25.25,9.71 66.25,25.15,9.63"/>
    </edge>
    <edge id=":a3N1_GRG_1" function="internal">
        <lane id=":a3N1_GRG_1_0" index="0" speed="3.29" length="8.30" width="3.75" shape="66.25,22.05,9.63 68.71,22.34,9.71 70.47,23.21,9.77 71.52,24.67,9.83 71.88,26.70,9.89"/>
    </edge>
    <edge id=":a3N1_GRG_2" function="internal">
        <lane id=":a3N1_GRG_2_0" index="0" speed="3.29" length="2.51" width="3.10" shape="66.25,22.05,9.63 67.41,22.83,9.63 67.80,23.60,9.63 67.69,23.82,9.63"/>
    </edge>
    <edge id=":a3N1_GRG_3" function="internal">
        <lane id=":a3N1_GRG_3_0" index="0" speed="3.29" length="2.01" width="3.10" shape="67.69,23.82,9.63 67.41,24.38,9.63 66.25,25.15,9.63"/>
    </edge>
    <edge id=":a3N2_GRG_0" function="internal">
        <lane id=":a3N2_GRG_0_0" index="0" speed="3.22" length="8.30" width="3.10" shape="13.12,26.70,9.37 13.48,24.67,9.43 14.53,23.21,9.49 16.29,22.34,9.55 18.75,22.05,9.63"/>
    </edge>
    <edge id=":a3N2_GRG_1" function="internal">
        <lane id=":a3N2_GRG_1_0" index="0" speed="3.35" length="2.78" width="3.75" shape="18.75,25.15,9.63 17.93,25.25,9.55 17.34,25.54,9.49 16.99,26.02,9.43 16.88,26.70,9.37"/>
    </edge>
    <edge id=":a3N2_GRG_2" function="internal">
        <lane id=":a3N2_GRG_2_0" index="0" speed="3.29" length="2.06" width="3.10" shape="18.75,25.15,9.63 17.59,24.38,9.63 17.29,23.78,9.63"/>
    </edge>
    <edge id=":a3N2_GRG_3" function="internal">
        <lane id=":a3N2_GRG_3_0" index="0" speed="3.29" length="2.47" width="3.10" shape="17.29,23.78,9.63 17.20,23.60,9.63 17.59,22.83,9.63 18.75,22.05,9.63"/>
    </edge>
    <edge id=":a4N1_GRG_0" function="internal">
        <lane id=":a4N1_GRG_0_0" index="0" speed="3.35" length="2.78" width="3.10" shape="68.12,26.70,12.64 68.01,26.02,12.58 67.66,25.54,12.52 67.07,25.25,12.46 66.25,25.15,12.38"/>
    </edge>
    <edge id=":a4N1_GRG_1" function="internal">
        <lane id=":a4N1_GRG_1_0" index="0" speed="3.46" length="8.30" width="3.75" shape="66.25,22.05,12.38 68.71,22.34,12.46 70.47,23.21,12.52 71.52,24.67,12.58 71.88,26.70,12.64"/>
    </edge>
    <edge id=":a4N1_GRG_2" function="internal">
        <lane id=":a4N1_GRG_2_0" index="0" speed="3.46" length="2.51" width="3.10" shape="66.25,22.05,12.38 67.41,22.83,12.38 67.80,23.60,12.38 67.69,23.82,12.38"/>
    </edge>
    <edge id=":a4N1_GRG_3" function="internal">
        <lane id=":a4N1_GRG_3_0" index="0" speed="3.46" length="2.01" width="3.10" shape="67.69,23.82,12.38 67.41,24.38,12.38 66.25,25.15,12.38"/>
    </edge>
    <edge id=":a4N2_GRG_0" function="internal">
        <lane id=":a4N2_GRG_0_0" index="0" speed="3.56" length="8.30" width="3.10" shape="13.12,26.70,12.12 13.48,24.67,12.18 14.53,23.21,12.24 16.29,22.34,12.30 18.75,22.05,12.38"/>
    </edge>
    <edge id=":a4N2_GRG_1" function="internal">
        <lane id=":a4N2_GRG_1_0" index="0" speed="3.35" length="2.78" width="3.75" shape="18.75,25.15,12.38 17.93,25.25,12.30 17.34,25.54,12.24 16.99,26.02,12.18 16.88,26.70,12.12"/>
    </edge>
    <edge id=":a4N2_GRG_2" function="internal">
        <lane id=":a4N2_GRG_2_0" index="0" speed="3.46" length="2.06" width="3.10" shape="18.75,25.15,12.38 17.59,24.38,12.38 17.29,23.78,12.38"/>
    </edge>
    <edge id=":a4N2_GRG_3" function="internal">
        <lane id=":a4N2_GRG_3_0" index="0" speed="3.46" length="2.47" width="3.10" shape="17.29,23.78,12.38 17.20,23.60,12.38 17.59,22.83,12.38 18.75,22.05,12.38"/>
    </edge>
    <edge id=":a5N1_GRG_0" function="internal">
        <lane id=":a5N1_GRG_0_0" index="0" speed="3.35" length="2.78" width="3.10" shape="68.12,26.70,15.39 68.01,26.02,15.33 67.66,25.54,15.27 67.07,25.25,15.21 66.25,25.15,15.13"/>
    </edge>
    <edge id=":a5N1_GRG_1" function="internal">
        <lane id=":a5N1_GRG_1_0" index="0" speed="3.42" length="8.30" width="3.75" shape="66.25,22.05,15.13 68.71,22.34,15.21 70.47,23.21,15.27 71.52,24.67,15.33 71.88,26.70,15.39"/>
    </edge>
    <edge id=":a5N1_GRG_2" function="internal">
        <lane id=":a5N1_GRG_2_0" index="0" speed="3.42" length="2.51" width="3.10" shape="66.25,22.05,15.13 67.41,22.83,15.13 67.80,23.60,15.13 67.69,23.82,15.13"/>
    </edge>
    <edge id=":a5N1_GRG_3" function="internal">
        <lane id=":a5N1_GRG_3_0" index="0" speed="3.42" length="2.01" width="3.10" shape="67.69,23.82,15.13 67.41,24.38,15.13 66.25,25.15,15.13"/>
    </edge>
    <edge id=":a5N2_GRG_0" function="internal">
        <lane id=":a5N2_GRG_0_0" index="0" speed="3.49" length="8.30" width="3.10" shape="13.12,26.70,14.87 13.48,24.67,14.93 14.53,23.21,14.99 16.29,22.34,15.05 18.75,22.05,15.13"/>
    </edge>
    <edge id=":a5N2_GRG_1" function="internal">
        <lane id=":a5N2_GRG_1_0" index="0" speed="3.35" length="2.78" width="3.75" shape="18.75,25.15,15.13 17.93,25.25,15.05 17.34,25.54,14.99 16.99,26.02,14.93 16.88,26.70,14.87"/>
    </edge>
    <edge id=":a5N2_GRG_2" function="internal">
        <lane id=":a5N2_GRG_2_0" index="0" speed="3.42" length="2.06" width="3.10" shape="18.75,25.15,15.13 17.59,24.38,15.13 17.29,23.78,15.13"/>
    </edge>
    <edge id=":a5N2_GRG_3" function="internal">
        <lane id=":a5N2_GRG_3_0" index="0" speed="3.42" length="2.47" width="3.10" shape="17.29,23.78,15.13 17.20,23.60,15.13 17.59,22.83,15.13 18.75,22.05,15.13"/>
    </edge>
    <edge id=":b0N1_GRG_0" function="internal">
        <lane id=":b0N1_GRG_0_0" index="0" speed="3.35" length="4.53" width="3.10" shape="70.00,38.26 71.16,39.04 71.55,39.81 71.16,40.59 70.00,41.36"/>
    </edge>
    <edge id=":b0N2_GRG_0" function="internal">
        <lane id=":b0N2_GRG_0_0" index="0" speed="3.35" length="8.30" width="3.75" shape="18.75,41.36 16.29,41.07,0.08 14.53,40.20,0.14 13.48,38.74,0.20 13.12,36.71,0.26"/>
    </edge>
    <edge id=":b0N2_GRG_1" function="internal">
        <lane id=":b0N2_GRG_1_0" index="0" speed="3.35" length="2.51" width="3.10" shape="18.75,41.36 17.59,40.59 17.20,39.81 17.31,39.59"/>
    </edge>
    <edge id=":b0N2_GRG_3" function="internal">
        <lane id=":b0N2_GRG_3_0" index="0" speed="3.35" length="2.01" width="3.10" shape="17.31,39.59 17.59,39.04 18.75,38.26"/>
    </edge>
    <edge id=":b0N2_GRG_2" function="internal">
        <lane id=":b0N2_GRG_2_0" index="0" speed="3.35" length="2.78" width="3.10" shape="16.88,36.71,0.26 16.99,37.39,0.20 17.34,37.87,0.14 17.93,38.16,0.08 18.75,38.26"/>
    </edge>
    <edge id=":b1N1_GRG_0" function="internal">
        <lane id=":b1N1_GRG_0_0" index="0" speed="3.29" length="8.31" width="3.10" shape="71.88,36.71,2.43 71.52,38.74,2.51 70.47,40.20,2.58 68.71,41.07,2.65 66.25,41.36,2.75"/>
    </edge>
    <edge id=":b1N1_GRG_1" function="internal">
        <lane id=":b1N1_GRG_1_0" index="0" speed="3.35" length="2.78" width="3.75" shape="66.25,38.26,2.75 67.07,38.16,2.67 67.66,37.87,2.61 68.01,37.39,2.55 68.12,36.71,2.49"/>
    </edge>
    <edge id=":b1N1_GRG_2" function="internal">
        <lane id=":b1N1_GRG_2_0" index="0" speed="3.29" length="2.06" width="3.10" shape="66.25,38.26,2.75 67.41,39.04,2.75 67.71,39.63,2.75"/>
    </edge>
    <edge id=":b1N1_GRG_3" function="internal">
        <lane id=":b1N1_GRG_3_0" index="0" speed="3.29" length="2.47" width="3.10" shape="67.71,39.63,2.75 67.80,39.81,2.75 67.41,40.59,2.75 66.25,41.36,2.75"/>
    </edge>
    <edge id=":b1N2_GRG_0" function="internal">
        <lane id=":b1N2_GRG_0_0" index="0" speed="3.22" length="8.30" width="3.75" shape="18.75,41.36,2.75 16.29,41.07,2.83 14.53,40.20,2.89 13.48,38.74,2.95 13.12,36.71,3.01"/>
    </edge>
    <edge id=":b1N2_GRG_1" function="internal">
        <lane id=":b1N2_GRG_1_0" index="0" speed="3.29" length="2.51" width="3.10" shape="18.75,41.36,2.75 17.59,40.59,2.75 17.20,39.81,2.75 17.31,39.59,2.75"/>
    </edge>
    <edge id=":b1N2_GRG_3" function="internal">
        <lane id=":b1N2_GRG_3_0" index="0" speed="3.29" length="2.01" width="3.10" shape="17.31,39.59,2.75 17.59,39.04,2.75 18.75,38.26,2.75"/>
    </edge>
    <edge id=":b1N2_GRG_2" function="internal">
        <lane id=":b1N2_GRG_2_0" index="0" speed="3.35" length="2.78" width="3.10" shape="16.88,36.71,3.01 16.99,37.39,2.95 17.34,37.87,2.89 17.93,38.16,2.83 18.75,38.26,2.75"/>
    </edge>
    <edge id=":b2N1_GRG_0" function="internal">
        <lane id=":b2N1_GRG_0_0" index="0" speed="3.47" length="8.30" width="3.10" shape="71.88,36.71,5.24 71.52,38.74,5.30 70.47,40.20,5.36 68.71,41.07,5.42 66.25,41.36,5.50"/>
    </edge>
    <edge id=":b2N1_GRG_1" function="internal">
        <lane id=":b2N1_GRG_1_0" index="0" speed="3.35" length="2.78" width="3.75" shape="66.25,38.26,5.50 67.07,38.16,5.42 67.66,37.87,5.36 68.01,37.39,5.30 68.12,36.71,5.24"/>
    </edge>
    <edge id=":b2N1_GRG_2" function="internal">
        <lane id=":b2N1_GRG_2_0" index="0" speed="3.47" length="2.06" width="3.10" shape="66.25,38.26,5.50 67.41,39.04,5.50 67.71,39.63,5.50"/>
    </edge>
    <edge id=":b2N1_GRG_3" function="internal">
        <lane id=":b2N1_GRG_3_0" index="0" speed="3.47" length="2.47" width="3.10" shape="67.71,39.63,5.50 67.80,39.81,5.50 67.41,40.59,5.50 66.25,41.36,5.50"/>
    </edge>
    <edge id=":b2N2_GRG_0" function="internal">
        <lane id=":b2N2_GRG_0_0" index="0" speed="3.59" length="8.30" width="3.75" shape="18.75,41.36,5.50 16.29,41.07,5.58 14.53,40.20,5.64 13.48,38.74,5.70 13.12,36.71,5.76"/>
    </edge>
    <edge id=":b2N2_GRG_1" function="internal">
        <lane id=":b2N2_GRG_1_0" index="0" speed="3.47" length="2.51" width="3.10" shape="18.75,41.36,5.50 17.59,40.59,5.50 17.20,39.81,5.50 17.31,39.59,5.50"/>
    </edge>
    <edge id=":b2N2_GRG_3" function="internal">
        <lane id=":b2N2_GRG_3_0" index="0" speed="3.47" length="2.01" width="3.10" shape="17.31,39.59,5.50 17.59,39.04,5.50 18.75,38.26,5.50"/>
    </edge>
    <edge id=":b2N2_GRG_2" function="internal">
        <lane id=":b2N2_GRG_2_0" index="0" speed="3.35" length="2.78" width="3.10" shape="16.88,36.71,5.76 16.99,37.39,5.70 17.34,37.87,5.64 17.93,38.16,5.58 18.75,38.26,5.50"/>
    </edge>
    <edge id=":b3N1_GRG_0" function="internal">
        <lane id=":b3N1_GRG_0_0" index="0" speed="3.29" length="8.30" width="3.10" shape="71.88,36.71,7.99 71.52,38.74,8.05 70.47,40.20,8.11 68.71,41.07,8.17 66.25,41.36,8.25"/>
    </edge>
    <edge id=":b3N1_GRG_1" function="internal">
        <lane id=":b3N1_GRG_1_0" index="0" speed="3.35" length="2.78" width="3.75" shape="66.25,38.26,8.25 67.07,38.16,8.17 67.66,37.87,8.11 68.01,37.39,8.05 68.12,36.71,7.99"/>
    </edge>
    <edge id=":b3N1_GRG_2" function="internal">
        <lane id=":b3N1_GRG_2_0" index="0" speed="3.29" length="2.06" width="3.10" shape="66.25,38.26,8.25 67.41,39.04,8.25 67.71,39.63,8.25"/>
    </edge>
    <edge id=":b3N1_GRG_3" function="internal">
        <lane id=":b3N1_GRG_3_0" index="0" speed="3.29" length="2.47" width="3.10" shape="67.71,39.63,8.25 67.80,39.81,8.25 67.41,40.59,8.25 66.25,41.36,8.25"/>
    </edge>
    <edge id=":b3N2_GRG_0" function="internal">
        <lane id=":b3N2_GRG_0_0" index="0" speed="3.22" length="8.30" width="3.75" shape="18.75,41.36,8.25 16.29,41.07,8.33 14.53,40.20,8.39 13.48,38.74,8.45 13.12,36.71,8.51"/>
    </edge>
    <edge id=":b3N2_GRG_1" function="internal">
        <lane id=":b3N2_GRG_1_0" index="0" speed="3.29" length="2.51" width="3.10" shape="18.75,41.36,8.25 17.59,40.59,8.25 17.20,39.81,8.25 17.31,39.59,8.25"/>
    </edge>
    <edge id=":b3N2_GRG_3" function="internal">
        <lane id=":b3N2_GRG_3_0" index="0" speed="3.29" length="2.01" width="3.10" shape="17.31,39.59,8.25 17.59,39.04,8.25 18.75,38.26,8.25"/>
    </edge>
    <edge id=":b3N2_GRG_2" function="internal">
        <lane id=":b3N2_GRG_2_0" index="0" speed="3.35" length="2.78" width="3.10" shape="16.88,36.71,8.51 16.99,37.39,8.45 17.34,37.87,8.39 17.93,38.16,8.33 18.75,38.26,8.25"/>
    </edge>
    <edge id=":b4N1_GRG_0" function="internal">
        <lane id=":b4N1_GRG_0_0" index="0" speed="3.46" length="8.30" width="3.10" shape="71.88,36.71,10.74 71.52,38.74,10.80 70.47,40.20,10.86 68.71,41.07,10.92 66.25,41.36,11.00"/>
    </edge>
    <edge id=":b4N1_GRG_1" function="internal">
        <lane id=":b4N1_GRG_1_0" index="0" speed="3.35" length="2.78" width="3.75" shape="66.25,38.26,11.00 67.07,38.16,10.92 67.66,37.87,10.86 68.01,37.39,10.80 68.12,36.71,10.74"/>
    </edge>
    <edge id=":b4N1_GRG_2" function="internal">
        <lane id=":b4N1_GRG_2_0" index="0" speed="3.46" length="2.06" width="3.10" shape="66.25,38.26,11.00 67.41,39.04,11.00 67.71,39.63,11.00"/>
    </edge>
    <edge id=":b4N1_GRG_3" function="internal">
        <lane id=":b4N1_GRG_3_0" index="0" speed="3.46" length="2.47" width="3.10" shape="67.71,39.63,11.00 67.80,39.81,11.00 67.41,40.59,11.00 66.25,41.36,11.00"/>
    </edge>
    <edge id=":b4N2_GRG_0" function="internal">
        <lane id=":b4N2_GRG_0_0" index="0" speed="3.56" length="8.30" width="3.75" shape="18.75,41.36,11.00 16.29,41.07,11.08 14.53,40.20,11.14 13.48,38.74,11.20 13.12,36.71,11.26"/>
    </edge>
    <edge id=":b4N2_GRG_1" function="internal">
        <lane id=":b4N2_GRG_1_0" index="0" speed="3.46" length="2.51" width="3.10" shape="18.75,41.36,11.00 17.59,40.59,11.00 17.20,39.81,11.00 17.31,39.59,11.00"/>
    </edge>
    <edge id=":b4N2_GRG_3" function="internal">
        <lane id=":b4N2_GRG_3_0" index="0" speed="3.46" length="2.01" width="3.10" shape="17.31,39.59,11.00 17.59,39.04,11.00 18.75,38.26,11.00"/>
    </edge>
    <edge id=":b4N2_GRG_2" function="internal">
        <lane id=":b4N2_GRG_2_0" index="0" speed="3.35" length="2.78" width="3.10" shape="16.88,36.71,11.26 16.99,37.39,11.20 17.34,37.87,11.14 17.93,38.16,11.08 18.75,38.26,11.00"/>
    </edge>
    <edge id=":b5N1_GRG_0" function="internal">
        <lane id=":b5N1_GRG_0_0" index="0" speed="3.42" length="8.30" width="3.10" shape="71.88,36.71,13.49 71.52,38.74,13.55 70.47,40.20,13.61 68.71,41.07,13.67 66.25,41.36,13.75"/>
    </edge>
    <edge id=":b5N1_GRG_1" function="internal">
        <lane id=":b5N1_GRG_1_0" index="0" speed="3.35" length="2.78" width="3.75" shape="66.25,38.26,13.75 67.07,38.16,13.67 67.66,37.87,13.61 68.01,37.39,13.55 68.12,36.71,13.49"/>
    </edge>
    <edge id=":b5N1_GRG_2" function="internal">
        <lane id=":b5N1_GRG_2_0" index="0" speed="3.42" length="2.06" width="3.10" shape="66.25,38.26,13.75 67.41,39.04,13.75 67.71,39.63,13.75"/>
    </edge>
    <edge id=":b5N1_GRG_3" function="internal">
        <lane id=":b5N1_GRG_3_0" index="0" speed="3.42" length="2.47" width="3.10" shape="67.71,39.63,13.75 67.80,39.81,13.75 67.41,40.59,13.75 66.25,41.36,13.75"/>
    </edge>
    <edge id=":b5N2_GRG_0" function="internal">
        <lane id=":b5N2_GRG_0_0" index="0" speed="3.49" length="8.30" width="3.75" shape="18.75,41.36,13.75 16.29,41.07,13.83 14.53,40.20,13.89 13.48,38.74,13.95 13.12,36.71,14.01"/>
    </edge>
    <edge id=":b5N2_GRG_1" function="internal">
        <lane id=":b5N2_GRG_1_0" index="0" speed="3.42" length="2.51" width="3.10" shape="18.75,41.36,13.75 17.59,40.59,13.75 17.20,39.81,13.75 17.31,39.59,13.75"/>
    </edge>
    <edge id=":b5N2_GRG_3" function="internal">
        <lane id=":b5N2_GRG_3_0" index="0" speed="3.42" length="2.01" width="3.10" shape="17.31,39.59,13.75 17.59,39.04,13.75 18.75,38.26,13.75"/>
    </edge>
    <edge id=":b5N2_GRG_2" function="internal">
        <lane id=":b5N2_GRG_2_0" index="0" speed="3.35" length="2.78" width="3.10" shape="16.88,36.71,14.01 16.99,37.39,13.95 17.34,37.87,13.89 17.93,38.16,13.83 18.75,38.26,13.75"/>
    </edge>
    <edge id=":b6N1_GRG_0" function="internal">
        <lane id=":b6N1_GRG_0_0" index="0" speed="3.35" length="8.30" width="3.10" shape="71.88,36.71,16.24 71.52,38.74,16.30 70.47,40.20,16.36 68.71,41.07,16.42 66.25,41.36,16.50"/>
    </edge>
    <edge id=":b6N1_GRG_1" function="internal">
        <lane id=":b6N1_GRG_1_0" index="0" speed="3.35" length="2.78" width="3.75" shape="66.25,38.26,16.50 67.07,38.16,16.42 67.66,37.87,16.36 68.01,37.39,16.30 68.12,36.71,16.24"/>
    </edge>
    <edge id=":b6N1_GRG_2" function="internal">
        <lane id=":b6N1_GRG_2_0" index="0" speed="3.35" length="2.06" width="3.10" shape="66.25,38.26,16.50 67.41,39.04,16.50 67.71,39.63,16.50"/>
    </edge>
    <edge id=":b6N1_GRG_3" function="internal">
        <lane id=":b6N1_GRG_3_0" index="0" speed="3.35" length="2.47" width="3.10" shape="67.71,39.63,16.50 67.80,39.81,16.50 67.41,40.59,16.50 66.25,41.36,16.50"/>
    </edge>
    <edge id=":b6N2_GRG_0" function="internal">
        <lane id=":b6N2_GRG_0_0" index="0" speed="3.35" length="4.53" width="3.10" shape="15.00,41.36,16.50 13.84,40.59,16.50 13.45,39.81,16.50 13.84,39.04,16.50 15.00,38.26,16.50"/>
    </edge>
    <edge id=":destN_0" function="internal">
        <lane id=":destN_0_0" index="0" speed="3.95" length="5.48" width="3.75" shape="90.00,5.12,1.38 91.41,6.06,1.38 91.88,7.00,1.38 91.41,7.94,1.38 90.00,8.88,1.38"/>
    </edge>
    <edge id=":entryN_0" function="internal">
        <lane id=":entryN_0_0" index="0" speed="4.61" length="3.83" width="3.75" shape="68.12,11.25,1.38 67.98,10.21,1.38 67.53,9.47,1.38 66.79,9.02,1.38 65.75,8.88,1.38"/>
    </edge>
    <edge id=":entryN_1" function="internal">
        <lane id=":entryN_1_0" index="0" speed="6.83" length="9.88" width="3.75" shape="68.12,11.25,1.38 68.51,8.57,1.38 69.66,6.66,1.38 71.57,5.51,1.38 74.25,5.12,1.38"/>
    </edge>
    <edge id=":entryN_2" function="internal">
        <lane id=":entryN_2_0" index="0" speed="4.61" length="3.83" width="3.75" shape="74.25,8.88,1.38 73.21,9.02,1.38 72.47,9.47,1.38 72.02,10.21,1.38 71.88,11.25,1.38"/>
    </edge>
    <edge id=":entryN_3" function="internal">
        <lane id=":entryN_3_0" index="0" speed="13.89" length="8.50" width="3.75" shape="74.25,8.88,1.38 65.75,8.88,1.38"/>
    </edge>
    <edge id=":entryN_4" function="internal">
        <lane id=":entryN_4_0" index="0" speed="13.89" length="8.50" width="3.75" shape="65.75,5.12,1.38 74.25,5.12,1.38"/>
    </edge>
    <edge id=":entryN_5" function="internal">
        <lane id=":entryN_5_0" index="0" speed="6.83" length="5.34" width="3.75" shape="65.75,5.12,1.38 68.43,5.51,1.38 70.34,6.66,1.38 70.55,7.00,1.38"/>
    </edge>
    <edge id=":entryN_6" function="internal">
        <lane id=":entryN_6_0" index="0" speed="6.83" length="4.54" width="3.75" shape="70.55,7.00,1.38 71.49,8.57,1.38 71.88,11.25,1.38"/>
    </edge>
    <edge id=":srcN_0" function="internal">
        <lane id=":srcN_0_0" index="0" speed="3.95" length="5.48" width="3.75" shape="5.00,8.88,1.38 3.59,7.94,1.38 3.12,7.00,1.38 3.59,6.06,1.38 5.00,5.12,1.38"/>
    </edge>

    <edge id="-a0E_GRG" from="a0N2_GRG" to="a0N1_GRG" priority="-1">
        <lane id="-a0E_GRG_0" index="0" speed="3.35" length="47.50" width="3.10" shape="18.75,22.05,1.38 66.25,22.05,1.38"/>
    </edge>
    <edge id="-a0b0rampE_GRG" from="b0N2_GRG" to="a0N2_GRG" priority="-1">
        <lane id="-a0b0rampE_GRG_0" index="0" speed="3.35" length="10.05" width="3.75" shape="13.12,36.71,0.26 13.12,26.70,1.12"/>
    </edge>
    <edge id="-a0b1rampE_GRG" from="b1N1_GRG" to="a0N1_GRG" priority="-1">
        <lane id="-a0b1rampE_GRG_0" index="0" speed="3.35" length="10.07" width="3.75" shape="68.12,36.71,2.49 68.12,26.70,1.38"/>
    </edge>
    <edge id="-a1E_GRG" from="a1N2_GRG" to="a1N1_GRG" priority="-1">
        <lane id="-a1E_GRG_0" index="0" speed="3.22" length="47.50" width="3.10" shape="18.75,22.05,4.13 66.25,22.05,4.13"/>
    </edge>
    <edge id="-a1b1rampE_GRG" from="b1N2_GRG" to="a1N2_GRG" priority="-1">
        <lane id="-a1b1rampE_GRG_0" index="0" speed="3.22" length="10.05" width="3.75" shape="13.12,36.71,3.01 13.12,26.70,3.87"/>
    </edge>
    <edge id="-a1b2rampE_GRG" from="b2N1_GRG" to="a1N1_GRG" priority="-1">
        <lane id="-a1b2rampE_GRG_0" index="0" speed="3.35" length="10.05" width="3.75" shape="68.12,36.71,5.24 68.12,26.70,4.39"/>
    </edge>
    <edge id="-a2E_GRG" from="a2N2_GRG" to="a2N1_GRG" priority="-1">
        <lane id="-a2E_GRG_0" index="0" speed="3.59" length="47.50" width="3.10" shape="18.75,22.05,6.88 66.25,22.05,6.88">
            <neigh lane="a2E_GRG_0"/>
        </lane>
    </edge>
    <edge id="-a2b2rampE_GRG" from="b2N2_GRG" to="a2N2_GRG" priority="-1">
        <lane id="-a2b2rampE_GRG_0" index="0" speed="3.59" length="10.05" width="3.75" shape="13.12,36.71,5.76 13.12,26.70,6.62"/>
    </edge>
    <edge id="-a2b3rampE_GRG" from="b3N1_GRG" to="a2N1_GRG" priority="-1">
        <lane id="-a2b3rampE_GRG_0" index="0" speed="3.35" length="10.05" width="3.75" shape="68.12,36.71,7.99 68.12,26.70,7.14"/>
    </edge>
    <edge id="-a3E_GRG" from="a3N2_GRG" to="a3N1_GRG" priority="-1">
        <lane id="-a3E_GRG_0" index="0" speed="3.22" length="47.50" width="3.10" shape="18.75,22.05,9.63 66.25,22.05,9.63">
            <neigh lane="a3E_GRG_0"/>
        </lane>
    </edge>
    <edge id="-a3b3rampE_GRG" from="b3N2_GRG" to="a3N2_GRG" priority="-1">
        <lane id="-a3b3rampE_GRG_0" index="0" speed="3.22" length="10.05" width="3.75" shape="13.12,36.71,8.51 13.12,26.70,9.37"/>
    </edge>
    <edge id="-a3b4rampE_GRG" from="b4N1_GRG" to="a3N1_GRG" priority="-1">
        <lane id="-a3b4rampE_GRG_0" index="0" speed="3.35" length="10.05" width="3.75" shape="68.12,36.71,10.74 68.12,26.70,9.89"/>
    </edge>
    <edge id="-a4E_GRG" from="a4N2_GRG" to="a4N1_GRG" priority="-1">
        <lane id="-a4E_GRG_0" index="0" speed="3.56" length="47.50" width="3.10" shape="18.75,22.05,12.38 66.25,22.05,12.38"/>
    </edge>
    <edge id="-a4b4rampE_GRG" from="b4N2_GRG" to="a4N2_GRG" priority="-1">
        <lane id="-a4b4rampE_GRG_0" index="0" speed="3.56" length="10.05" width="3.75" shape="13.12,36.71,11.26 13.12,26.70,12.12"/>
    </edge>
    <edge id="-a4b5rampE_GRG" from="b5N1_GRG" to="a4N1_GRG" priority="-1">
        <lane id="-a4b5rampE_GRG_0" index="0" speed="3.35" length="10.05" width="3.75" shape="68.12,36.71,13.49 68.12,26.70,12.64"/>
    </edge>
    <edge id="-a5E_GRG" from="a5N2_GRG" to="a5N1_GRG" priority="-1">
        <lane id="-a5E_GRG_0" index="0" speed="3.49" length="47.50" width="3.10" shape="18.75,22.05,15.13 66.25,22.05,15.13"/>
    </edge>
    <edge id="-a5b5rampE_GRG" from="b5N2_GRG" to="a5N2_GRG" priority="-1">
        <lane id="-a5b5rampE_GRG_0" index="0" speed="3.49" length="10.05" width="3.75" shape="13.12,36.71,14.01 13.12,26.70,14.87"/>
    </edge>
    <edge id="-a5b6rampE_GRG" from="b6N1_GRG" to="a5N1_GRG" priority="-1">
        <lane id="-a5b6rampE_GRG_0" index="0" speed="3.35" length="10.05" width="3.75" shape="68.12,36.71,16.24 68.12,26.70,15.39"/>
    </edge>
    <edge id="-b0E_GRG" from="b0N2_GRG" to="b0N1_GRG" priority="-1">
        <lane id="-b0E_GRG_0" index="0" speed="3.35" length="51.25" width="3.10" shape="18.75,38.26 70.00,38.26"/>
    </edge>
    <edge id="-b1E_GRG" from="b1N2_GRG" to="b1N1_GRG" priority="-1">