<?xml version="1.0" encoding="UTF-8"?>

<configuration xmlns:xsi="http://www.w3.org/2001/XMLSchema-instance" xsi:noNamespaceSchemaLocation="http://sumo.dlr.de/xsd/sumoConfiguration.xsd">

    <input>
        <net-file value="garage.net.xml"/>
        <route-files value="garage.rou.xml"/>
        <additional-files value="garage_parking.add.xml,garage.poly.xml"/>
    </input>
    
    <processing>
        <time-to-teleport value="30"/>
    </processing>

</configuration>
